  
       XFOIL         Version 6.99
  
 Calculated polar for: NACA 1412                                       
  
 1 1 Reynolds number fixed          Mach number fixed         
  
 xtrf =   1.000 (top)        1.000 (bottom)  
 Mach =   0.000     Re =     0.100 e 6     Ncrit =   9.000
  
   alpha    CL        CD       CDp       CM     Top_Xtr  Bot_Xtr
  ------ -------- --------- --------- -------- -------- --------
 -10.000  -0.7475   0.06445   0.05886  -0.0429   1.0000   0.0855
  -9.900  -0.7573   0.06221   0.05654  -0.0427   1.0000   0.0849
  -9.800  -0.7672   0.05991   0.05415  -0.0424   1.0000   0.0842
  -9.700  -0.7770   0.05759   0.05169  -0.0420   1.0000   0.0836
  -9.600  -0.7847   0.05537   0.04933  -0.0414   1.0000   0.0831
  -9.500  -0.7915   0.05320   0.04701  -0.0406   1.0000   0.0826
  -9.400  -0.7969   0.05116   0.04480  -0.0398   1.0000   0.0823
  -9.300  -0.8004   0.04930   0.04278  -0.0389   1.0000   0.0822
  -9.200  -0.8019   0.04771   0.04104  -0.0381   1.0000   0.0824
  -9.100  -0.8022   0.04628   0.03946  -0.0372   1.0000   0.0829
  -9.000  -0.8017   0.04494   0.03797  -0.0363   1.0000   0.0835
  -8.900  -0.8009   0.04364   0.03651  -0.0354   1.0000   0.0842
  -8.800  -0.7998   0.04237   0.03506  -0.0344   1.0000   0.0849
  -8.700  -0.7983   0.04112   0.03362  -0.0334   1.0000   0.0856
  -8.600  -0.7964   0.03990   0.03221  -0.0323   1.0000   0.0863
  -8.500  -0.7939   0.03874   0.03084  -0.0313   1.0000   0.0869
  -8.400  -0.7909   0.03765   0.02953  -0.0303   1.0000   0.0876
  -8.300  -0.7875   0.03665   0.02828  -0.0292   1.0000   0.0882
  -8.200  -0.7835   0.03566   0.02709  -0.0282   1.0000   0.0888
  -8.100  -0.7771   0.03434   0.02580  -0.0278   1.0000   0.0900
  -8.000  -0.7698   0.03365   0.02514  -0.0274   1.0000   0.0914
  -7.900  -0.7624   0.03312   0.02462  -0.0269   1.0000   0.0930
  -7.800  -0.7553   0.03257   0.02404  -0.0263   1.0000   0.0946
  -7.700  -0.7486   0.03192   0.02331  -0.0256   1.0000   0.0963
  -7.600  -0.7423   0.03122   0.02246  -0.0249   1.0000   0.0979
  -7.500  -0.7360   0.03051   0.02157  -0.0240   1.0000   0.0995
  -7.400  -0.7296   0.02987   0.02072  -0.0232   1.0000   0.1008
  -7.300  -0.7223   0.02893   0.01975  -0.0227   1.0000   0.1025
  -7.200  -0.7141   0.02832   0.01921  -0.0223   1.0000   0.1046
  -7.100  -0.7064   0.02789   0.01879  -0.0218   1.0000   0.1068
  -7.000  -0.6987   0.02744   0.01828  -0.0212   1.0000   0.1093
  -6.900  -0.6911   0.02694   0.01768  -0.0205   1.0000   0.1118
  -6.800  -0.6836   0.02646   0.01703  -0.0198   1.0000   0.1141
  -6.700  -0.6754   0.02571   0.01629  -0.0194   1.0000   0.1165
  -6.600  -0.6672   0.02523   0.01591  -0.0190   1.0000   0.1192
  -6.500  -0.6592   0.02486   0.01554  -0.0184   1.0000   0.1224
  -6.400  -0.6513   0.02448   0.01507  -0.0178   1.0000   0.1259
  -6.300  -0.6434   0.02411   0.01454  -0.0171   1.0000   0.1292
  -6.200  -0.6349   0.02346   0.01403  -0.0168   1.0000   0.1325
  -6.100  -0.6268   0.02311   0.01373  -0.0163   1.0000   0.1363
  -6.000  -0.6187   0.02279   0.01333  -0.0157   1.0000   0.1408
  -5.900  -0.6105   0.02234   0.01284  -0.0152   1.0000   0.1452
  -5.800  -0.6024   0.02195   0.01256  -0.0147   1.0000   0.1495
  -5.700  -0.5943   0.02164   0.01223  -0.0142   1.0000   0.1549
  -5.600  -0.5861   0.02125   0.01181  -0.0137   1.0000   0.1604
  -5.500  -0.5781   0.02091   0.01158  -0.0132   1.0000   0.1659
  -5.400  -0.5699   0.02065   0.01124  -0.0127   1.0000   0.1729
  -5.300  -0.5618   0.02024   0.01094  -0.0122   1.0000   0.1791
  -5.200  -0.5537   0.01998   0.01068  -0.0117   1.0000   0.1870
  -5.100  -0.5457   0.01963   0.01041  -0.0112   1.0000   0.1946
  -5.000  -0.5375   0.01939   0.01015  -0.0107   1.0000   0.2040
  -4.900  -0.5296   0.01905   0.00994  -0.0102   1.0000   0.2126
  -4.800  -0.5214   0.01878   0.00968  -0.0097   1.0000   0.2234
  -4.700  -0.5134   0.01853   0.00949  -0.0093   1.0000   0.2346
  -4.600  -0.5054   0.01824   0.00931  -0.0088   1.0000   0.2460
  -4.500  -0.4973   0.01798   0.00911  -0.0083   1.0000   0.2589
  -4.400  -0.4891   0.01774   0.00894  -0.0079   1.0000   0.2730
  -4.300  -0.4809   0.01751   0.00878  -0.0074   1.0000   0.2881
  -4.200  -0.4728   0.01728   0.00864  -0.0070   1.0000   0.3039
  -4.100  -0.4646   0.01706   0.00851  -0.0066   1.0000   0.3204
  -4.000  -0.4564   0.01685   0.00840  -0.0061   1.0000   0.3375
  -3.900  -0.4481   0.01664   0.00830  -0.0057   1.0000   0.3554
  -3.800  -0.4397   0.01644   0.00821  -0.0053   1.0000   0.3740
  -3.700  -0.4313   0.01626   0.00813  -0.0049   1.0000   0.3935
  -3.600  -0.4229   0.01609   0.00806  -0.0045   1.0000   0.4139
  -3.500  -0.4144   0.01594   0.00800  -0.0041   1.0000   0.4354
  -3.400  -0.4060   0.01578   0.00797  -0.0037   1.0000   0.4560
  -3.300  -0.3976   0.01565   0.00795  -0.0032   1.0000   0.4779
  -3.200  -0.3892   0.01553   0.00793  -0.0028   1.0000   0.5011
  -3.100  -0.3809   0.01541   0.00794  -0.0023   1.0000   0.5234
  -3.000  -0.3726   0.01531   0.00795  -0.0018   1.0000   0.5469
  -2.900  -0.3644   0.01523   0.00797  -0.0012   1.0000   0.5709
  -2.800  -0.3563   0.01515   0.00800  -0.0006   1.0000   0.5943
  -2.700  -0.3482   0.01509   0.00803  -0.0000   1.0000   0.6190
  -2.600  -0.3404   0.01503   0.00810   0.0007   1.0000   0.6424
  -2.500  -0.3326   0.01500   0.00817   0.0014   1.0000   0.6668
  -2.400  -0.3250   0.01498   0.00824   0.0022   1.0000   0.6906
  -2.300  -0.3176   0.01498   0.00834   0.0031   1.0000   0.7142
  -2.200  -0.3104   0.01499   0.00843   0.0040   1.0000   0.7385
  -2.100  -0.3037   0.01502   0.00855   0.0050   1.0000   0.7611
  -2.000  -0.2970   0.01507   0.00867   0.0061   1.0000   0.7845
  -1.900  -0.2905   0.01514   0.00879   0.0072   1.0000   0.8079
  -1.800  -0.2841   0.01524   0.00894   0.0084   1.0000   0.8308
  -1.700  -0.2774   0.01534   0.00910   0.0095   1.0000   0.8547
  -1.600  -0.2672   0.01549   0.00928   0.0100   0.9993   0.8785
  -1.500  -0.2461   0.01571   0.00949   0.0085   0.9960   0.9037
  -1.400  -0.2210   0.01597   0.00972   0.0061   0.9937   0.9263
  -1.300  -0.1933   0.01619   0.00990   0.0031   0.9910   0.9446
  -1.200  -0.1626   0.01642   0.01007  -0.0007   0.9889   0.9601
  -1.100  -0.1294   0.01664   0.01023  -0.0049   0.9875   0.9728
  -1.000  -0.0940   0.01683   0.01035  -0.0097   0.9866   0.9829
  -0.900  -0.0570   0.01696   0.01042  -0.0148   0.9858   0.9906
  -0.800  -0.0206   0.01705   0.01045  -0.0199   0.9849   0.9983
  -0.700   0.0050   0.01704   0.01040  -0.0232   0.9810   1.0000
  -0.600   0.0265   0.01700   0.01033  -0.0258   0.9753   1.0000
  -0.500   0.0506   0.01697   0.01026  -0.0287   0.9713   1.0000
  -0.400   0.0705   0.01692   0.01018  -0.0308   0.9651   1.0000
  -0.300   0.0932   0.01687   0.01011  -0.0334   0.9601   1.0000
  -0.200   0.1189   0.01681   0.01002  -0.0364   0.9567   1.0000
  -0.100   0.1366   0.01675   0.00994  -0.0380   0.9495   1.0000
   0.000   0.1605   0.01666   0.00984  -0.0406   0.9450   1.0000
   0.100   0.1875   0.01655   0.00971  -0.0438   0.9419   1.0000
   0.200   0.2046   0.01646   0.00962  -0.0451   0.9345   1.0000
   0.300   0.2264   0.01634   0.00949  -0.0472   0.9293   1.0000
   0.400   0.2509   0.01617   0.00932  -0.0497   0.9255   1.0000
   0.500   0.2637   0.01609   0.00924  -0.0501   0.9165   1.0000
   0.600   0.2843   0.01592   0.00906  -0.0518   0.9113   1.0000
   0.700   0.2989   0.01582   0.00895  -0.0524   0.9036   1.0000
   0.800   0.3147   0.01567   0.00881  -0.0531   0.8964   1.0000
   0.900   0.3302   0.01553   0.00866  -0.0538   0.8898   1.0000
   1.000   0.3417   0.01544   0.00856  -0.0537   0.8809   1.0000
   1.100   0.3564   0.01528   0.00840  -0.0541   0.8745   1.0000
   1.200   0.3655   0.01522   0.00833  -0.0535   0.8648   1.0000
   1.300   0.3785   0.01508   0.00817  -0.0536   0.8581   1.0000
   1.400   0.3868   0.01504   0.00813  -0.0529   0.8482   1.0000
   1.500   0.3981   0.01493   0.00800  -0.0525   0.8410   1.0000
   1.600   0.4064   0.01490   0.00795  -0.0518   0.8313   1.0000
   1.700   0.4166   0.01482   0.00786  -0.0513   0.8236   1.0000
   1.800   0.4251   0.01479   0.00781  -0.0506   0.8142   1.0000
   1.900   0.4346   0.01474   0.00774  -0.0500   0.8060   1.0000
   2.000   0.4434   0.01471   0.00769  -0.0493   0.7969   1.0000
   2.100   0.4523   0.01470   0.00765  -0.0486   0.7882   1.0000
   2.200   0.4614   0.01467   0.00760  -0.0479   0.7795   1.0000
   2.300   0.4700   0.01468   0.00759  -0.0472   0.7703   1.0000
   2.400   0.4794   0.01466   0.00753  -0.0466   0.7620   1.0000
   2.500   0.4877   0.01469   0.00756  -0.0459   0.7523   1.0000
   2.600   0.4974   0.01467   0.00749  -0.0453   0.7444   1.0000
   2.700   0.5055   0.01472   0.00753  -0.0446   0.7343   1.0000
   2.800   0.5154   0.01471   0.00746  -0.0440   0.7267   1.0000
   2.900   0.5233   0.01478   0.00753  -0.0433   0.7161   1.0000
   3.000   0.5328   0.01480   0.00750  -0.0427   0.7079   1.0000
   3.100   0.5413   0.01485   0.00754  -0.0420   0.6979   1.0000
   3.200   0.5503   0.01490   0.00755  -0.0414   0.6889   1.0000
   3.300   0.5593   0.01494   0.00757  -0.0407   0.6796   1.0000
   3.400   0.5679   0.01501   0.00762  -0.0401   0.6699   1.0000
   3.500   0.5773   0.01506   0.00761  -0.0395   0.6613   1.0000
   3.600   0.5856   0.01514   0.00769  -0.0388   0.6509   1.0000
   3.700   0.5950   0.01519   0.00768  -0.0382   0.6423   1.0000
   3.800   0.6034   0.01527   0.00775  -0.0376   0.6318   1.0000
   3.900   0.6122   0.01535   0.00780  -0.0370   0.6223   1.0000
   4.000   0.6212   0.01542   0.00782  -0.0364   0.6126   1.0000
   4.100   0.6296   0.01551   0.00792  -0.0357   0.6022   1.0000
   4.200   0.6390   0.01559   0.00791  -0.0351   0.5933   1.0000
   4.300   0.6471   0.01568   0.00802  -0.0345   0.5821   1.0000
   4.400   0.6558   0.01578   0.00808  -0.0338   0.5721   1.0000
   4.500   0.6646   0.01586   0.00811  -0.0332   0.5621   1.0000
   4.600   0.6729   0.01597   0.00821  -0.0325   0.5510   1.0000
   4.700   0.6816   0.01607   0.00826  -0.0319   0.5410   1.0000
   4.800   0.6900   0.01617   0.00833  -0.0312   0.5300   1.0000
   4.900   0.6982   0.01628   0.00844  -0.0306   0.5187   1.0000
   5.000   0.7068   0.01639   0.00850  -0.0299   0.5083   1.0000
   5.100   0.7150   0.01650   0.00858  -0.0293   0.4968   1.0000
   5.200   0.7231   0.01662   0.00869  -0.0286   0.4849   1.0000
   5.300   0.7314   0.01674   0.00877  -0.0279   0.4735   1.0000
   5.400   0.7396   0.01687   0.00883  -0.0272   0.4621   1.0000
   5.500   0.7474   0.01700   0.00896  -0.0265   0.4492   1.0000
   5.600   0.7553   0.01714   0.00907  -0.0259   0.4365   1.0000
   5.700   0.7632   0.01729   0.00917  -0.0252   0.4240   1.0000
   5.800   0.7710   0.01744   0.00927  -0.0245   0.4114   1.0000
   5.900   0.7786   0.01760   0.00940  -0.0237   0.3975   1.0000
   6.000   0.7861   0.01776   0.00953  -0.0230   0.3831   1.0000
   6.100   0.7935   0.01794   0.00968  -0.0223   0.3685   1.0000
   6.200   0.8007   0.01814   0.00982  -0.0215   0.3537   1.0000
   6.300   0.8079   0.01836   0.00998  -0.0208   0.3385   1.0000
   6.400   0.8149   0.01861   0.01016  -0.0200   0.3231   1.0000
   6.500   0.8217   0.01888   0.01035  -0.0193   0.3075   1.0000
   6.600   0.8285   0.01918   0.01058  -0.0185   0.2919   1.0000
   6.700   0.8351   0.01950   0.01082  -0.0178   0.2765   1.0000
   6.800   0.8416   0.01985   0.01108  -0.0170   0.2616   1.0000
   6.900   0.8481   0.02023   0.01136  -0.0162   0.2473   1.0000
   7.000   0.8546   0.02063   0.01165  -0.0155   0.2340   1.0000
   7.100   0.8610   0.02105   0.01196  -0.0148   0.2216   1.0000
   7.200   0.8679   0.02145   0.01233  -0.0141   0.2091   1.0000
   7.300   0.8748   0.02189   0.01271  -0.0134   0.1981   1.0000
   7.400   0.8815   0.02238   0.01305  -0.0128   0.1890   1.0000
   7.500   0.8887   0.02278   0.01346  -0.0121   0.1794   1.0000
   7.600   0.8959   0.02328   0.01390  -0.0115   0.1715   1.0000
   7.700   0.9032   0.02371   0.01429  -0.0109   0.1639   1.0000
   7.800   0.9107   0.02424   0.01476  -0.0104   0.1573   1.0000
   7.900   0.9183   0.02466   0.01519  -0.0099   0.1506   1.0000
   8.000   0.9263   0.02529   0.01564  -0.0095   0.1454   1.0000
   8.100   0.9341   0.02570   0.01618  -0.0089   0.1398   1.0000
   8.200   0.9420   0.02615   0.01659  -0.0084   0.1349   1.0000
   8.300   0.9507   0.02684   0.01714  -0.0082   0.1306   1.0000
   8.400   0.9584   0.02727   0.01771  -0.0076   0.1262   1.0000
   8.500   0.9666   0.02776   0.01821  -0.0071   0.1223   1.0000
   8.600   0.9756   0.02836   0.01868  -0.0069   0.1188   1.0000
   8.700   0.9842   0.02905   0.01940  -0.0066   0.1155   1.0000
   8.800   0.9918   0.02954   0.02002  -0.0060   0.1122   1.0000
   8.900   1.0001   0.03006   0.02055  -0.0056   0.1091   1.0000
   9.000   1.0091   0.03064   0.02106  -0.0054   0.1065   1.0000
   9.100   1.0197   0.03166   0.02195  -0.0055   0.1038   1.0000
   9.200   1.0265   0.03218   0.02266  -0.0047   0.1017   1.0000
   9.300   1.0339   0.03276   0.02337  -0.0042   0.0993   1.0000
   9.400   1.0414   0.03334   0.02401  -0.0037   0.0969   1.0000
   9.500   1.0496   0.03392   0.02459  -0.0034   0.0948   1.0000
   9.600   1.0592   0.03467   0.02527  -0.0033   0.0930   1.0000
   9.700   1.0692   0.03594   0.02649  -0.0034   0.0912   1.0000
   9.800   1.0745   0.03660   0.02736  -0.0025   0.0899   1.0000
   9.900   1.0800   0.03734   0.02828  -0.0017   0.0885   1.0000
  10.000   1.0858   0.03810   0.02918  -0.0010   0.0869   1.0000
  10.100   1.0922   0.03882   0.02998  -0.0005   0.0853   1.0000
  10.200   1.0991   0.03951   0.03071   0.0000   0.0838   1.0000
  10.300   1.1061   0.04022   0.03144   0.0004   0.0824   1.0000
  10.400   1.1139   0.04108   0.03229   0.0006   0.0812   1.0000
  10.500   1.1224   0.04243   0.03363   0.0006   0.0801   1.0000
  10.600   1.1268   0.04383   0.03514   0.0013   0.0794   1.0000
  10.700   1.1281   0.04477   0.03631   0.0024   0.0788   1.0000
  10.800   1.1290   0.04580   0.03755   0.0036   0.0782   1.0000
  10.900   1.1294   0.04689   0.03884   0.0047   0.0776   1.0000
  11.000   1.1294   0.04802   0.04015   0.0058   0.0769   1.0000
  11.100   1.1291   0.04918   0.04148   0.0069   0.0762   1.0000
  11.200   1.1284   0.05034   0.04279   0.0079   0.0756   1.0000
  11.300   1.1274   0.05151   0.04410   0.0090   0.0749   1.0000
  11.400   1.1261   0.05267   0.04539   0.0100   0.0744   1.0000
  11.500   1.1244   0.05386   0.04670   0.0110   0.0739   1.0000
  11.600   1.1222   0.05508   0.04803   0.0120   0.0734   1.0000
  11.700   1.1191   0.05635   0.04941   0.0130   0.0731   1.0000
  11.800   1.1138   0.05765   0.05083   0.0142   0.0729   1.0000
  11.900   1.1067   0.05902   0.05231   0.0155   0.0729   1.0000
  12.000   1.0983   0.06048   0.05389   0.0168   0.0729   1.0000
  12.100   1.0884   0.06207   0.05560   0.0178   0.0729   1.0000
  12.200   1.0771   0.06381   0.05747   0.0187   0.0731   1.0000
  12.300   1.0645   0.06573   0.05951   0.0193   0.0733   1.0000
  12.400   1.0505   0.06787   0.06177   0.0195   0.0736   1.0000
  12.500   1.0354   0.07026   0.06428   0.0193   0.0740   1.0000
  12.600   1.0194   0.07294   0.06706   0.0187   0.0744   1.0000
  12.700   1.0026   0.07594   0.07017   0.0176   0.0748   1.0000
  12.800   0.9850   0.07929   0.07362   0.0160   0.0754   1.0000
  12.900   0.9669   0.08304   0.07746   0.0139   0.0760   1.0000
  13.000   0.9491   0.08712   0.08160   0.0114   0.0767   1.0000
  13.100   0.9324   0.09137   0.08590   0.0088   0.0774   1.0000
  13.200   0.9176   0.09565   0.09021   0.0062   0.0780   1.0000
  13.300   0.9049   0.09980   0.09438   0.0038   0.0785   1.0000
  13.400   0.8947   0.10368   0.09828   0.0018   0.0790   1.0000
  13.500   0.8868   0.10726   0.10186   0.0001   0.0793   1.0000
  13.600   0.8815   0.11044   0.10505  -0.0012   0.0796   1.0000
  13.800   0.5305   0.14625   0.14104  -0.0160   0.1548   1.0000
  13.900   0.5300   0.14705   0.14186  -0.0163   0.1522   1.0000
  14.000   0.5335   0.14800   0.14282  -0.0162   0.1500   1.0000
  14.100   0.5404   0.14921   0.14404  -0.0159   0.1484   1.0000
  14.200   0.5528   0.15108   0.14593  -0.0154   0.1471   1.0000
  14.300   0.5880   0.15578   0.15068  -0.0135   0.1457   1.0000
  14.400   0.5769   0.15645   0.15133  -0.0145   0.1454   1.0000
  14.500   0.5590   0.15608   0.15094  -0.0160   0.1450   1.0000
  14.600   0.5387   0.15515   0.14998  -0.0176   0.1438   1.0000
  14.700   0.5297   0.15537   0.15020  -0.0187   0.1413   1.0000
  14.800   0.5285   0.15618   0.15102  -0.0191   0.1390   1.0000
  14.900   0.5301   0.15709   0.15193  -0.0193   0.1369   1.0000
  15.000   0.5345   0.15811   0.15296  -0.0193   0.1350   1.0000
  15.100   0.5450   0.15961   0.15449  -0.0186   0.1332   1.0000
  15.300   0.5731   0.16575   0.16065  -0.0174   0.1311   1.0000
  15.400   0.5563   0.16487   0.15976  -0.0190   0.1307   1.0000
  15.500   0.5401   0.16402   0.15889  -0.0207   0.1294   1.0000
  15.600   0.5338   0.16437   0.15924  -0.0218   0.1272   1.0000
  15.700   0.5332   0.16522   0.16010  -0.0223   0.1252   1.0000
  15.800   0.5343   0.16616   0.16104  -0.0226   0.1235   1.0000
  15.900   0.5367   0.16715   0.16204  -0.0228   0.1220   1.0000
  16.000   0.5405   0.16824   0.16313  -0.0228   0.1207   1.0000
  16.100   0.5463   0.16956   0.16447  -0.0226   0.1195   1.0000
  16.200   0.5591   0.17192   0.16685  -0.0219   0.1184   1.0000
  16.300   0.5812   0.17715   0.17210  -0.0207   0.1173   1.0000
  16.400   0.5680   0.17627   0.17120  -0.0221   0.1171   1.0000
  16.500   0.5545   0.17527   0.17019  -0.0237   0.1165   1.0000
  16.600   0.5443   0.17490   0.16981  -0.0253   0.1150   1.0000
  16.700   0.5418   0.17553   0.17044  -0.0261   0.1129   1.0000
  16.800   0.5424   0.17641   0.17133  -0.0266   0.1109   1.0000
  16.900   0.5444   0.17735   0.17228  -0.0268   0.1091   1.0000
  17.000   0.5477   0.17837   0.17330  -0.0269   0.1076   1.0000
  17.100   0.5524   0.17956   0.17451  -0.0268   0.1065   1.0000
  17.200   0.5592   0.18116   0.17612  -0.0266   0.1055   1.0000
  17.300   0.5727   0.18425   0.17923  -0.0258   0.1047   1.0000
  17.400   0.5889   0.18914   0.18413  -0.0251   0.1040   1.0000
  17.500   0.5775   0.18806   0.18304  -0.0265   0.1038   1.0000
  17.600   0.5664   0.18705   0.18202  -0.0280   0.1034   1.0000
  17.700   0.5575   0.18654   0.18151  -0.0295   0.1025   1.0000
  17.800   0.5543   0.18702   0.18199  -0.0305   0.1009   1.0000
  17.900   0.5543   0.18790   0.18288  -0.0311   0.0993   1.0000
  18.000   0.5553   0.18886   0.18384  -0.0316   0.0979   1.0000
  18.100   0.5570   0.18984   0.18483  -0.0320   0.0965   1.0000
  18.200   0.5596   0.19085   0.18585  -0.0322   0.0953   1.0000
  18.300   0.5632   0.19196   0.18696  -0.0323   0.0941   1.0000
  18.400   0.5690   0.19340   0.18841  -0.0320   0.0930   1.0000
  18.500   0.5821   0.19655   0.19159  -0.0311   0.0920   1.0000
  18.600   0.5948   0.20106   0.19610  -0.0306   0.0914   1.0000
  18.700   0.5857   0.20007   0.19511  -0.0319   0.0912   1.0000
  18.800   0.5774   0.19929   0.19431  -0.0333   0.0908   1.0000
  18.900   0.5712   0.19905   0.19407  -0.0348   0.0900   1.0000
  19.000   0.5690   0.19961   0.19463  -0.0357   0.0887   1.0000
  19.100   0.5691   0.20051   0.19554  -0.0364   0.0874   1.0000
  19.200   0.5701   0.20150   0.19654  -0.0369   0.0862   1.0000
  19.300   0.5716   0.20252   0.19757  -0.0373   0.0850   1.0000
  19.400   0.5734   0.20354   0.19860  -0.0377   0.0840   1.0000
  19.500   0.5757   0.20459   0.19965  -0.0380   0.0831   1.0000
  19.600   0.5784   0.20569   0.20077  -0.0382   0.0822   1.0000
  19.700   0.5819   0.20693   0.20201  -0.0383   0.0815   1.0000
  19.800   0.5869   0.20852   0.20361  -0.0382   0.0808   1.0000
  19.900   0.5964   0.21143   0.20654  -0.0376   0.0801   1.0000
  20.000   0.6079   0.21601   0.21111  -0.0372   0.0796   1.0000
  20.100   0.6006   0.21506   0.21016  -0.0384   0.0795   1.0000
  20.200   0.5940   0.21435   0.20945  -0.0398   0.0792   1.0000
  20.300   0.5891   0.21414   0.20924  -0.0411   0.0785   1.0000
  20.400   0.5872   0.21466   0.20976  -0.0422   0.0773   1.0000
  20.500   0.5875   0.21558   0.21069  -0.0428   0.0760   1.0000
  20.600   0.5886   0.21658   0.21170  -0.0434   0.0748   1.0000
  20.700   0.5901   0.21761   0.21273  -0.0438   0.0737   1.0000
  20.800   0.5920   0.21865   0.21378  -0.0442   0.0727   1.0000
  20.900   0.5941   0.21972   0.21485  -0.0445   0.0719   1.0000
  21.000   0.5965   0.22082   0.21597  -0.0448   0.0712   1.0000
  21.100   0.5994   0.22204   0.21720  -0.0450   0.0705   1.0000
  21.200   0.6033   0.22350   0.21867  -0.0450   0.0700   1.0000
  21.300   0.6090   0.22559   0.22077  -0.0448   0.0695   1.0000
  21.400   0.6207   0.23008   0.22529  -0.0441   0.0690   1.0000
  21.500   0.6205   0.23123   0.22642  -0.0448   0.0688   1.0000
  21.600   0.6158   0.23074   0.22593  -0.0459   0.0687   1.0000
  21.700   0.6117   0.23050   0.22569  -0.0471   0.0684   1.0000
  21.800   0.6089   0.23064   0.22583  -0.0482   0.0680   1.0000
  21.900   0.6078   0.23128   0.22647  -0.0492   0.0673   1.0000
  22.000   0.6080   0.23220   0.22740  -0.0499   0.0664   1.0000
  22.100   0.6090   0.23324   0.22845  -0.0505   0.0654   1.0000
  22.200   0.6102   0.23430   0.22952  -0.0510   0.0645   1.0000
  22.300   0.6117   0.23537   0.23060  -0.0515   0.0636   1.0000
  22.400   0.6134   0.23644   0.23168  -0.0519   0.0627   1.0000
  22.500   0.6153   0.23752   0.23276  -0.0523   0.0619   1.0000
  22.600   0.6176   0.23863   0.23388  -0.0526   0.0612   1.0000
  22.700   0.6204   0.23985   0.23511  -0.0528   0.0606   1.0000
  22.800   0.6241   0.24139   0.23667  -0.0528   0.0600   1.0000
  22.900   0.6299   0.24379   0.23908  -0.0526   0.0596   1.0000
  23.000   0.6393   0.24815   0.24344  -0.0521   0.0592   1.0000
  23.100   0.6355   0.24780   0.24309  -0.0532   0.0591   1.0000
  23.200   0.6324   0.24767   0.24297  -0.0543   0.0590   1.0000
  23.300   0.6300   0.24783   0.24313  -0.0553   0.0587   1.0000
  23.400   0.6288   0.24837   0.24367  -0.0563   0.0583   1.0000
  23.500   0.6287   0.24922   0.24453  -0.0571   0.0577   1.0000
  23.600   0.6293   0.25026   0.24557  -0.0578   0.0570   1.0000
  23.700   0.6304   0.25136   0.24668  -0.0584   0.0563   1.0000
  23.800   0.6316   0.25247   0.24780  -0.0589   0.0556   1.0000
  23.900   0.6329   0.25359   0.24893  -0.0594   0.0549   1.0000
  24.000   0.6343   0.25471   0.25005  -0.0599   0.0543   1.0000
  24.100   0.6358   0.25582   0.25117  -0.0603   0.0537   1.0000
  24.200   0.6375   0.25694   0.25230  -0.0608   0.0532   1.0000
  24.300   0.6393   0.25807   0.25344  -0.0612   0.0527   1.0000
  24.400   0.6413   0.25924   0.25462  -0.0615   0.0522   1.0000
  24.500   0.6436   0.26051   0.25590  -0.0618   0.0517   1.0000
  24.600   0.6467   0.26208   0.25748  -0.0619   0.0513   1.0000
  24.700   0.6515   0.26447   0.25990  -0.0618   0.0509   1.0000
  24.900   0.6536   0.26730   0.26272  -0.0628   0.0506   1.0000
  25.000   0.6514   0.26742   0.26284  -0.0639   0.0504   1.0000
  25.100   0.6503   0.26796   0.26339  -0.0649   0.0500   1.0000
  25.200   0.6503   0.26888   0.26431  -0.0657   0.0495   1.0000
  25.300   0.6510   0.26996   0.26540  -0.0664   0.0489   1.0000
  25.400   0.6521   0.27109   0.26654  -0.0669   0.0483   1.0000
  25.500   0.6532   0.27224   0.26770  -0.0675   0.0477   1.0000
  25.600   0.6544   0.27340   0.26887  -0.0680   0.0471   1.0000
  25.700   0.6557   0.27453   0.27000  -0.0685   0.0466   1.0000
  25.800   0.6571   0.27570   0.27118  -0.0690   0.0461   1.0000
  25.900   0.6585   0.27684   0.27233  -0.0694   0.0457   1.0000
  26.000   0.6599   0.27798   0.27348  -0.0699   0.0452   1.0000
  26.100   0.6615   0.27914   0.27465  -0.0703   0.0448   1.0000
  26.200   0.6632   0.28032   0.27585  -0.0707   0.0444   1.0000
  26.300   0.6651   0.28161   0.27714  -0.0710   0.0441   1.0000
  26.400   0.6674   0.28306   0.27861  -0.0713   0.0438   1.0000
  26.500   0.6706   0.28499   0.28055  -0.0713   0.0435   1.0000
  26.600   0.6756   0.28803   0.28361  -0.0712   0.0433   1.0000
  26.700   0.6743   0.28841   0.28397  -0.0721   0.0432   1.0000
  26.800   0.6731   0.28884   0.28440  -0.0730   0.0431   1.0000
  26.900   0.6724   0.28947   0.28505  -0.0739   0.0430   1.0000
  27.000   0.6723   0.29034   0.28592  -0.0747   0.0427   1.0000
  27.100   0.6727   0.29138   0.28697  -0.0755   0.0423   1.0000
  27.200   0.6734   0.29252   0.28812  -0.0761   0.0418   1.0000
  27.300   0.6744   0.29369   0.28930  -0.0767   0.0412   1.0000
  27.400   0.6754   0.29487   0.29048  -0.0772   0.0407   1.0000
  27.500   0.6765   0.29604   0.29166  -0.0778   0.0401   1.0000
  27.600   0.6777   0.29720   0.29284  -0.0783   0.0396   1.0000
  27.700   0.6789   0.29836   0.29400  -0.0788   0.0392   1.0000
  27.800   0.6801   0.29952   0.29517  -0.0792   0.0387   1.0000
  27.900   0.6814   0.30068   0.29634  -0.0797   0.0384   1.0000
  28.000   0.6828   0.30184   0.29751  -0.0801   0.0380   1.0000
  28.100   0.6842   0.30305   0.29873  -0.0806   0.0377   1.0000
  28.200   0.6858   0.30433   0.30002  -0.0809   0.0374   1.0000
  28.300   0.6877   0.30578   0.30148  -0.0812   0.0372   1.0000
  28.400   0.6903   0.30765   0.30337  -0.0814   0.0370   1.0000
  28.600   0.6922   0.31040   0.30613  -0.0824   0.0368   1.0000
  28.700   0.6917   0.31116   0.30689  -0.0832   0.0367   1.0000
  28.800   0.6917   0.31208   0.30782  -0.0840   0.0366   1.0000
  28.900   0.6921   0.31313   0.30888  -0.0847   0.0364   1.0000
  29.000   0.6926   0.31427   0.31002  -0.0854   0.0361   1.0000
  29.100   0.6934   0.31545   0.31121  -0.0860   0.0358   1.0000
  29.200   0.6942   0.31666   0.31243  -0.0866   0.0355   1.0000
  29.300   0.6951   0.31787   0.31365  -0.0871   0.0351   1.0000
  29.400   0.6960   0.31908   0.31487  -0.0876   0.0347   1.0000
  29.500   0.6970   0.32028   0.31608  -0.0882   0.0343   1.0000
  29.600   0.6979   0.32148   0.31729  -0.0887   0.0339   1.0000
  29.700   0.6989   0.32265   0.31847  -0.0892   0.0335   1.0000
  29.800   0.6999   0.32382   0.31965  -0.0897   0.0331   1.0000
  29.900   0.7010   0.32498   0.32082  -0.0902   0.0328   1.0000
  30.000   0.7021   0.32614   0.32199  -0.0907   0.0324   1.0000
