
 ===================================================
  XFOIL Version 6.99
  Copyright (C) 2000   Mark Drela, Harold Youngren

  This software comes with ABSOLUTELY NO WARRANTY,
    subject to the GNU General Public License.

  Caveat computor
 ===================================================

 File  xfoil.def  not found

   QUIT    Exit program

  .OPER    Direct operating point(s)
  .MDES    Complex mapping design routine
  .QDES    Surface speed design routine
  .GDES    Geometry design routine

   SAVE f  Write airfoil to labeled coordinate file
   PSAV f  Write airfoil to plain coordinate file
   ISAV f  Write airfoil to ISES coordinate file
   MSAV f  Write airfoil to MSES coordinate file
   REVE    Reverse written-airfoil node ordering

   LOAD f  Read buffer airfoil from coordinate file
   NACA i  Set NACA 4,5-digit airfoil and buffer airfoil
   INTE    Set buffer airfoil by interpolating two airfoils
   NORM    Buffer airfoil normalization toggle
   XYCM rr Change CM reference location, currently  0.25000 0.00000

   BEND    Display structural properties of current airfoil

   PCOP    Set current-airfoil panel nodes directly from buffer airfoil points
   PANE    Set current-airfoil panel nodes ( 160 ) based on curvature
  .PPAR    Show/change paneling

  .PLOP    Plotting options

   WDEF f  Write  current-settings file
   RDEF f  Reread current-settings file
   NAME s  Specify new airfoil name
   NINC    Increment name version number

   Z       Zoom    | (available in all menus)
   U       Unzoom  | 

 XFOIL   c>  
 Labeled airfoil file.  Name:  BOEING HSNLF AIRFOIL                            

 Number of input coordinate points: 139
 Counterclockwise ordering
 Max thickness =     0.100797  at x =   0.430
 Max camber    =     0.013591  at x =   0.742

  LE  x,y  =   0.00008  -0.00043  |   Chord =   0.99854
  TE  x,y  =   0.99861   0.00082  |

 Current airfoil nodes set from buffer airfoil nodes ( 138 )

 XFOIL   c>  
.OPERi   c>   Current iteration limit:          10

Enter new iteration limit   i>  
.OPERi   c>  
 XFOIL   c>  
 XFOIL   c>  
 XFOIL   c>  
.OPERi   c>  
.OPERi   c>  
.OPERi   c>  
 M  =    0.0000
 Re =  10000000

.OPERv   c>  
 Polar  1 newly created for accumulation
 Airfoil archived with polar: BOEING HSNLF AIRFOIL                            

Enter  polar save filename  OR  <return> for no file   s>  
 Polar save file will NOT be written

Enter  polar dump filename  OR  <return> for no file   s>  
 Polar dump file will NOT be written

 Polar accumulation enabled

.OPERva   c>   Calculating unit vorticity distributions ...
 Calculating wake trajectory ...
 Calculating source influence matrix ...

 Solving BL system ...

 Initializing BL ...
    side            1  ...
 MRCHUE: Inverse mode at  61     Hk =   2.500
    side            2  ...
 MRCHUE: Inverse mode at  26     Hk =   5.294
 MRCHUE: Inverse mode at  27     Hk =   2.500

 Side 1  free  transition at x/c =  0.8530   61
 Side 2  free  transition at x/c =  0.0449   26

   1   rms: 0.1858E+00   max: -.2688E+01   D at   27  2   RLX: 0.186
       a = -2.000      CL =  0.0232
      Cm = -0.0703     CD =  0.00418   =>   CDf =  0.00365    CDp =  0.00053

 Side 1  free  transition at x/c =  0.8540   61
 Side 2  free  transition at x/c =  0.0463   26

   2   rms: 0.1102E+00   max: -.1468E+01   D at   27  2   RLX: 0.341
       a = -2.000      CL =  0.0208
      Cm = -0.0695     CD =  0.00419   =>   CDf =  0.00366    CDp =  0.00053

 Side 1  free  transition at x/c =  0.8548   61
 Side 2  free  transition at x/c =  0.0473   26

   3   rms: 0.7266E-01   max: -.8767E+00   D at   27  2   RLX: 0.570
       a = -2.000      CL =  0.0175
      Cm = -0.0684     CD =  0.00422   =>   CDf =  0.00367    CDp =  0.00055

 Side 1  free  transition at x/c =  0.8551   61
 Side 2  free  transition at x/c =  0.0513   27

   4   rms: 0.3701E-01   max: -.4589E+00   C at   27  2
       a = -2.000      CL =  0.0155
      Cm = -0.0676     CD =  0.00426   =>   CDf =  0.00368    CDp =  0.00057

 Side 1  free  transition at x/c =  0.8551   61
 Side 2  free  transition at x/c =  0.0630   29

   5   rms: 0.2301E-01   max: -.5591E+00   C at   29  2   RLX: 0.894
       a = -2.000      CL =  0.0159
      Cm = -0.0677     CD =  0.00423   =>   CDf =  0.00366    CDp =  0.00057

 Side 1  free  transition at x/c =  0.8551   61
 Side 2  free  transition at x/c =  0.0677   30

   6   rms: 0.6446E-02   max: 0.1581E+00   C at   30  2
       a = -2.000      CL =  0.0159
      Cm = -0.0677     CD =  0.00422   =>   CDf =  0.00365    CDp =  0.00057

 Side 1  free  transition at x/c =  0.8551   61
 Side 2  free  transition at x/c =  0.0672   30

   7   rms: 0.9808E-04   max: -.2332E-02   C at   30  2
       a = -2.000      CL =  0.0159
      Cm = -0.0677     CD =  0.00422   =>   CDf =  0.00365    CDp =  0.00057
 plradd ia,ip,cpol            1          65  3.22500011E-03

 Point added to stored polar  1
 Save file unspecified or not available
 Dump file unspecified or not available

.OPERva   c>  
.OPERva   c>  
.OPERva   c>   Calculating wake trajectory ...
 Calculating source influence matrix ...

 Solving BL system ...

 Side 1  free  transition at x/c =  0.8551   61
 Side 2  free  transition at x/c =  0.0672   30

   1   rms: 0.2552E+01   max: -.6067E+02   C at   30  2   RLX: 0.008
       a = -1.000      CL =  0.0168
      Cm = -0.0677     CD =  0.00421   =>   CDf =  0.00365    CDp =  0.00056

 Side 1  free  transition at x/c =  0.8549   61
 Side 2  free  transition at x/c =  0.0686   30

   2   rms: 0.1321E+01   max: -.3198E+02   C at   30  2   RLX: 0.016
       a = -1.000      CL =  0.0186
      Cm = -0.0678     CD =  0.00421   =>   CDf =  0.00364    CDp =  0.00056

 Side 1  free  transition at x/c =  0.8546   61
 Side 2  free  transition at x/c =  0.0730   31

   3   rms: 0.2490E+01   max: -.5826E+02   C at   31  2   RLX: 0.009
       a = -1.000      CL =  0.0194
      Cm = -0.0678     CD =  0.00419   =>   CDf =  0.00363    CDp =  0.00055

 Side 1  free  transition at x/c =  0.8545   61
 Side 2  free  transition at x/c =  0.0744   31

   4   rms: 0.8914E+00   max: -.2103E+02   C at   31  2   RLX: 0.024
       a = -1.000      CL =  0.0221
      Cm = -0.0678     CD =  0.00418   =>   CDf =  0.00363    CDp =  0.00055

 Side 1  free  transition at x/c =  0.8540   61
 Side 2  free  transition at x/c =  0.0801   32

   5   rms: 0.9589E+00   max: -.2186E+02   C at   32  2   RLX: 0.023
       a = -1.000      CL =  0.0245
      Cm = -0.0679     CD =  0.00416   =>   CDf =  0.00361    CDp =  0.00054

 Side 1  free  transition at x/c =  0.8534   61
 Side 2  free  transition at x/c =  0.0817   33

   6   rms: 0.3696E+00   max: 0.3660E+01   D at   33  2   RLX: 0.264
       a = -1.000      CL =  0.0523
      Cm = -0.0682     CD =  0.00406   =>   CDf =  0.00378    CDp =  0.00028

 Side 1  free  transition at x/c =  0.8332   62
 Side 2  free  transition at x/c =  0.0887   33

   7   rms: 0.2777E+00   max: -.2189E+01   D at    2  1   RLX: 0.228
       a = -1.000      CL =  0.0697
      Cm = -0.0680     CD =  0.00418   =>   CDf =  0.00366    CDp =  0.00052

 Side 1  free  transition at x/c =  0.8159   62
 Side 2  free  transition at x/c =  0.2049   44

   8   rms: 0.1986E+01   max: -.4349E+02   C at   44  2   RLX: 0.011
       a = -1.000      CL =  0.0702
      Cm = -0.0680     CD =  0.00379   =>   CDf =  0.00339    CDp =  0.00040

 Side 1  free  transition at x/c =  0.8151   62
 Side 2  free  transition at x/c =  0.2106   45

   9   rms: 0.1205E+01   max: 0.1467E+02   D at   45  2   RLX: 0.057
       a = -1.000      CL =  0.0732
      Cm = -0.0681     CD =  0.00367   =>   CDf =  0.00337    CDp =  0.00029

 Side 1  free  transition at x/c =  0.8110   62
 Side 2  free  transition at x/c =  0.2244   46

  10   rms: 0.2972E+00   max: 0.2618E+01   D at   46  2   RLX: 0.298
       a = -1.000      CL =  0.0895
      Cm = -0.0683     CD =  0.00363   =>   CDf =  0.00334    CDp =  0.00029

 Side 1  free  transition at x/c =  0.7916   61
 Side 2  free  transition at x/c =  0.2395   47

  11   rms: 0.1833E+00   max: -.1184E+01   n at   46  2   RLX: 0.422
       a = -1.000      CL =  0.1063
      Cm = -0.0685     CD =  0.00365   =>   CDf =  0.00334    CDp =  0.00031

 Side 1  free  transition at x/c =  0.7877   61
 Side 2  free  transition at x/c =  0.4947   60

  12   rms: 0.1540E+00   max: -.2852E+01   C at   60  2   RLX: 0.175
       a = -1.000      CL =  0.1085
      Cm = -0.0685     CD =  0.00278   =>   CDf =  0.00263    CDp =  0.00015

 Side 1  free  transition at x/c =  0.7855   61
 Side 2  free  transition at x/c =  0.5015   60

  13   rms: 0.1167E+00   max: -.2628E+01   C at   60  2   RLX: 0.190
       a = -1.000      CL =  0.1116
      Cm = -0.0686     CD =  0.00281   =>   CDf =  0.00261    CDp =  0.00019

 MRCHDU: Convergence failed at  61  side 1    Res =  0.2339E-01
 Side 1  free  transition at x/c =  0.7828   61
 Side 2  free  transition at x/c =  0.5055   61

  14   rms: 0.5591E-01   max: 0.6109E+00   C at   61  1
       a = -1.000      CL =  0.1227
      Cm = -0.0685     CD =  0.00285   =>   CDf =  0.00262    CDp =  0.00023

 Side 1  free  transition at x/c =  0.7450   61
 Side 2  free  transition at x/c =  0.5240   61

  15   rms: 0.1257E-02   max: 0.1473E-01   C at   61  2
       a = -1.000      CL =  0.1226
      Cm = -0.0685     CD =  0.00290   =>   CDf =  0.00267    CDp =  0.00023

 Side 1  free  transition at x/c =  0.7436   61
 Side 2  free  transition at x/c =  0.5236   61

  16   rms: 0.1806E-04   max: -.3674E-03   C at   61  2
       a = -1.000      CL =  0.1226
      Cm = -0.0685     CD =  0.00290   =>   CDf =  0.00267    CDp =  0.00022
 plradd ia,ip,cpol            2          66  0.56849301    

 Point added to stored polar  1
 Save file unspecified or not available
 Dump file unspecified or not available

.OPERva   c>  
.OPERva   c>  
.OPERva   c>   Calculating wake trajectory ...
 Calculating source influence matrix ...

 Solving BL system ...

 Side 1  free  transition at x/c =  0.7436   61
 Side 2  free  transition at x/c =  0.5236   61

   1   rms: 0.2787E+00   max: -.2963E+01   C at   61  2   RLX: 0.169
       a =  0.000      CL =  0.1412
      Cm = -0.0685     CD =  0.00292   =>   CDf =  0.00267    CDp =  0.00025

 Side 1  free  transition at x/c =  0.7099   60
 Side 2  free  transition at x/c =  0.5265   61

   2   rms: 0.2400E+00   max: -.4451E+00   C at   61  2   RLX: 0.345
       a =  0.000      CL =  0.1710
      Cm = -0.0683     CD =  0.00332   =>   CDf =  0.00277    CDp =  0.00054

 Side 1  free  transition at x/c =  0.6255   58
 Side 2  free  transition at x/c =  0.5674   61

   3   rms: 0.2133E+00   max: -.2320E+01   D at   58  1   RLX: 0.216
       a =  0.000      CL =  0.1817
      Cm = -0.0678     CD =  0.00345   =>   CDf =  0.00299    CDp =  0.00046

 Side 1  free  transition at x/c =  0.5937   56
 Side 2  free  transition at x/c =  0.5694   61

   4   rms: 0.2677E+00   max: 0.6168E+01   C at   56  1   RLX: 0.243
       a =  0.000      CL =  0.1931
      Cm = -0.0679     CD =  0.00346   =>   CDf =  0.00309    CDp =  0.00038

 Side 1  free  transition at x/c =  0.5622   55
 Side 2  free  transition at x/c =  0.5704   61

   5   rms: 0.3590E+00   max: 0.7961E+01   C at   55  1   RLX: 0.188
       a =  0.000      CL =  0.1984
      Cm = -0.0677     CD =  0.00366   =>   CDf =  0.00318    CDp =  0.00048

 MRCHDU: Convergence failed at  54  side 1    Res =  0.3634E-01
 Side 1  free  transition at x/c =  0.5434   54
 Side 2  free  transition at x/c =  0.5709   61

   6   rms: 0.4750E+00   max: 0.1161E+02   C at   54  1   RLX: 0.129
       a =  0.000      CL =  0.2017
      Cm = -0.0676     CD =  0.00368   =>   CDf =  0.00325    CDp =  0.00044

 Side 1  free  transition at x/c =  0.5294   54
 Side 2  free  transition at x/c =  0.5711   61

   7   rms: 0.1190E+00   max: -.1284E+01   D at   54  1   RLX: 0.389
       a =  0.000      CL =  0.2100
      Cm = -0.0674     CD =  0.00383   =>   CDf =  0.00328    CDp =  0.00055

 Side 1  free  transition at x/c =  0.5057   53
 Side 2  free  transition at x/c =  0.5717   61

   8   rms: 0.5956E-01   max: -.5988E+00   D at   53  1   RLX: 0.835
       a =  0.000      CL =  0.2221
      Cm = -0.0674     CD =  0.00393   =>   CDf =  0.00336    CDp =  0.00057

 Side 1  free  transition at x/c =  0.4801   52
 Side 2  free  transition at x/c =  0.5723   61

   9   rms: 0.8036E-02   max: 0.8841E-02   D at   74  2
       a =  0.000      CL =  0.2252
      Cm = -0.0675     CD =  0.00390   =>   CDf =  0.00343    CDp =  0.00047

 Side 1  free  transition at x/c =  0.4751   52
 Side 2  free  transition at x/c =  0.5725   61

  10   rms: 0.1280E-03   max: -.1750E-02   D at   52  1
       a =  0.000      CL =  0.2253
      Cm = -0.0676     CD =  0.00389   =>   CDf =  0.00344    CDp =  0.00045

 MRCHDU: Convergence failed at  51  side 1    Res =  0.4350E-04
 Side 1  free  transition at x/c =  0.4750   51
 Side 2  free  transition at x/c =  0.5725   61

  11   rms: 0.7019E-05   max: -.1740E-03   C at   51  1
       a =  0.000      CL =  0.2253
      Cm = -0.0676     CD =  0.00389   =>   CDf =  0.00345    CDp =  0.00044
 plradd ia,ip,cpol            3          67  0.47429600    

 Point added to stored polar  1
 Save file unspecified or not available
 Dump file unspecified or not available

.OPERva   c>  
.OPERva   c>  
.OPERva   c>   Calculating wake trajectory ...
 Calculating source influence matrix ...

 Solving BL system ...

 Side 1  free  transition at x/c =  0.4750   51
 Side 2  free  transition at x/c =  0.5725   61

   1   rms: 0.1002E+01   max: 0.2438E+02   C at   51  1   RLX: 0.062
       a =  1.000      CL =  0.2320
      Cm = -0.0676     CD =  0.00393   =>   CDf =  0.00345    CDp =  0.00048

 Side 1  free  transition at x/c =  0.4644   51
 Side 2  free  transition at x/c =  0.5728   61

   2   rms: 0.5004E+00   max: 0.8382E+01   C at   51  1   RLX: 0.122
       a =  1.000      CL =  0.2437
      Cm = -0.0675     CD =  0.00408   =>   CDf =  0.00348    CDp =  0.00060

 Side 1  free  transition at x/c =  0.4452   50
 Side 2  free  transition at x/c =  0.5733   61

   3   rms: 0.4458E+00   max: 0.9107E+01   C at   50  1   RLX: 0.165
       a =  1.000      CL =  0.2582
      Cm = -0.0675     CD =  0.00413   =>   CDf =  0.00354    CDp =  0.00059

 Side 1  free  transition at x/c =  0.4245   49
 Side 2  free  transition at x/c =  0.6020   62

   4   rms: 0.6852E+00   max: 0.1538E+02   C at   49  1   RLX: 0.098
       a =  1.000      CL =  0.2643
      Cm = -0.0672     CD =  0.00413   =>   CDf =  0.00354    CDp =  0.00059

 Side 1  free  transition at x/c =  0.3873   47
 Side 2  free  transition at x/c =  0.6051   62

   5   rms: 0.1372E+01   max: 0.3357E+02   C at   47  1   RLX: 0.045
       a =  1.000      CL =  0.2671
      Cm = -0.0671     CD =  0.00422   =>   CDf =  0.00364    CDp =  0.00057

 Side 1  free  transition at x/c =  0.3671   46
 Side 2  free  transition at x/c =  0.6063   62

   6   rms: 0.1580E+01   max: 0.3878E+02   C at   46  1   RLX: 0.039
       a =  1.000      CL =  0.2693
      Cm = -0.0671     CD =  0.00429   =>   CDf =  0.00370    CDp =  0.00059

 Side 1  free  transition at x/c =  0.3486   45
 Side 2  free  transition at x/c =  0.6073   62

   7   rms: 0.1868E+01   max: 0.4616E+02   C at   45  1   RLX: 0.032
       a =  1.000      CL =  0.2711
      Cm = -0.0671     CD =  0.00436   =>   CDf =  0.00375    CDp =  0.00060

 Side 1  free  transition at x/c =  0.3344   45
 Side 2  free  transition at x/c =  0.6081   62

   8   rms: 0.6731E+00   max: -.8056E+01   D at   45  1   RLX: 0.062
       a =  1.000      CL =  0.2737
      Cm = -0.0669     CD =  0.00450   =>   CDf =  0.00379    CDp =  0.00071

 Side 1  free  transition at x/c =  0.3103   43
 Side 2  free  transition at x/c =  0.6093   62

   9   rms: 0.1513E+01   max: 0.3716E+02   C at   43  1   RLX: 0.040
       a =  1.000      CL =  0.2757
      Cm = -0.0669     CD =  0.00450   =>   CDf =  0.00371    CDp =  0.00079

 Side 1  free  transition at x/c =  0.2931   43
 Side 2  free  transition at x/c =  0.6101   61

  10   rms: 0.1253E+01   max: -.3039E+02   C at   43  1   RLX: 0.016
       a =  1.000      CL =  0.2767
      Cm = -0.0669     CD =  0.00453   =>   CDf =  0.00391    CDp =  0.00062

 Side 1  free  transition at x/c =  0.3150   45
 Side 2  free  transition at x/c =  0.6104   61

  11   rms: 0.4585E+00   max: -.5158E+01   D at   45  1   RLX: 0.097
       a =  1.000      CL =  0.2811
      Cm = -0.0668     CD =  0.00457   =>   CDf =  0.00384    CDp =  0.00073

 Side 1  free  transition at x/c =  0.2802   43
 Side 2  free  transition at x/c =  0.6119   61

  12   rms: 0.5266E+00   max: -.6240E+01   D at   43  1   RLX: 0.080
       a =  1.000      CL =  0.2840
      Cm = -0.0666     CD =  0.00470   =>   CDf =  0.00394    CDp =  0.00075

 Side 1  free  transition at x/c =  0.2583   41
 Side 2  free  transition at x/c =  0.6128   61

  13   rms: 0.9951E+00   max: 0.2427E+02   C at   41  1   RLX: 0.062
       a =  1.000      CL =  0.2865
      Cm = -0.0666     CD =  0.00471   =>   CDf =  0.00401    CDp =  0.00070

 Side 1  free  transition at x/c =  0.2441   41
 Side 2  free  transition at x/c =  0.6134   61

  14   rms: 0.1662E+00   max: -.1463E+01   D at   41  1   RLX: 0.342
       a =  1.000      CL =  0.3005
      Cm = -0.0667     CD =  0.00484   =>   CDf =  0.00404    CDp =  0.00079

 MRCHDU: Convergence failed at  37  side 1    Res =  0.2517E-01
 Side 1  free  transition at x/c =  0.1980   37
 Side 2  free  transition at x/c =  0.6156   61

  15   rms: 0.4560E+00   max: 0.1072E+02   C at   37  1   RLX: 0.140
       a =  1.000      CL =  0.3039
      Cm = -0.0666     CD =  0.00497   =>   CDf =  0.00418    CDp =  0.00078

 Side 1  free  transition at x/c =  0.1861   36
 Side 2  free  transition at x/c =  0.6159   61

  16   rms: 0.3866E+00   max: 0.9487E+01   C at   36  1   RLX: 0.158
       a =  1.000      CL =  0.3076
      Cm = -0.0666     CD =  0.00499   =>   CDf =  0.00422    CDp =  0.00077

 Side 1  free  transition at x/c =  0.1747   36
 Side 2  free  transition at x/c =  0.6163   61

  17   rms: 0.7766E-01   max: -.7530E+00   D at   36  1   RLX: 0.664
       a =  1.000      CL =  0.3203
      Cm = -0.0666     CD =  0.00511   =>   CDf =  0.00425    CDp =  0.00086

 Side 1  free  transition at x/c =  0.1406   33
 Side 2  free  transition at x/c =  0.6170   61

  18   rms: 0.2557E-01   max: -.2579E+00   D at   33  1
       a =  1.000      CL =  0.3264
      Cm = -0.0665     CD =  0.00521   =>   CDf =  0.00435    CDp =  0.00085

 Side 1  free  transition at x/c =  0.1283   31
 Side 2  free  transition at x/c =  0.6173   61

  19   rms: 0.5656E-02   max: -.1273E+00   C at   31  1
       a =  1.000      CL =  0.3263
      Cm = -0.0665     CD =  0.00521   =>   CDf =  0.00439    CDp =  0.00082

 Side 1  free  transition at x/c =  0.1287   31
 Side 2  free  transition at x/c =  0.6173   61

  20   rms: 0.1084E-04   max: -.1482E-03   D at   32  1
       a =  1.000      CL =  0.3263
      Cm = -0.0665     CD =  0.00521   =>   CDf =  0.00439    CDp =  0.00082
 plradd ia,ip,cpol            4          68  1.78250000E-02

 Point added to stored polar  1
 Save file unspecified or not available
 Dump file unspecified or not available

.OPERva   c>  
.OPERva   c>  
.OPERva   c>   Calculating wake trajectory ...
 Calculating source influence matrix ...

 Solving BL system ...

 Side 1  free  transition at x/c =  0.1287   31
 Side 2  free  transition at x/c =  0.6173   61

   1   rms: 0.1690E+01   max: 0.4145E+02   C at   31  1   RLX: 0.036
       a =  2.000      CL =  0.3302
      Cm = -0.0665     CD =  0.00524   =>   CDf =  0.00439    CDp =  0.00085

 Side 1  free  transition at x/c =  0.1192   31
 Side 2  free  transition at x/c =  0.6178   61

   2   rms: 0.4059E+00   max: -.4080E+01   D at   31  1   RLX: 0.123
       a =  2.000      CL =  0.3430
      Cm = -0.0665     CD =  0.00534   =>   CDf =  0.00442    CDp =  0.00092

 Side 1  free  transition at x/c =  0.0919   27
 Side 2  free  transition at x/c =  0.6189   61

   3   rms: 0.1056E+01   max: 0.2548E+02   C at   27  1   RLX: 0.059
       a =  2.000      CL =  0.3484
      Cm = -0.0665     CD =  0.00541   =>   CDf =  0.00450    CDp =  0.00091

 Side 1  free  transition at x/c =  0.0831   26
 Side 2  free  transition at x/c =  0.6192   61

   4   rms: 0.9385E+00   max: 0.2221E+02   C at   26  1   RLX: 0.068
       a =  2.000      CL =  0.3542
      Cm = -0.0665     CD =  0.00546   =>   CDf =  0.00453    CDp =  0.00093

 MRCHDU: Convergence failed at  25  side 1    Res =  0.8820E-05
 Side 1  free  transition at x/c =  0.0748   25
 Side 2  free  transition at x/c =  0.6195   61

   5   rms: 0.1034E+01   max: 0.2352E+02   C at   25  1   RLX: 0.064
       a =  2.000      CL =  0.3591
      Cm = -0.0665     CD =  0.00552   =>   CDf =  0.00456    CDp =  0.00096

 Side 1  free  transition at x/c =  0.0681   24
 Side 2  free  transition at x/c =  0.6198   61

   6   rms: 0.9373E+00   max: 0.2175E+02   C at   24  1   RLX: 0.069
       a =  2.000      CL =  0.3642
      Cm = -0.0665     CD =  0.00555   =>   CDf =  0.00458    CDp =  0.00097

 Side 1  free  transition at x/c =  0.0621   23
 Side 2  free  transition at x/c =  0.6200   61

   7   rms: 0.6281E+00   max: 0.1469E+02   C at   23  1   RLX: 0.102
       a =  2.000      CL =  0.3715
      Cm = -0.0665     CD =  0.00558   =>   CDf =  0.00460    CDp =  0.00098

 MRCHDU: Convergence failed at  22  side 1    Res =  0.1651E-01
 Side 1  free  transition at x/c =  0.0556   22
 Side 2  free  transition at x/c =  0.6202   61

   8   rms: 0.6103E+00   max: 0.1376E+02   C at   22  1   RLX: 0.109
       a =  2.000      CL =  0.3783
      Cm = -0.0665     CD =  0.00563   =>   CDf =  0.00463    CDp =  0.00101

 Side 1  free  transition at x/c =  0.0496   21
 Side 2  free  transition at x/c =  0.6204   61

   9   rms: 0.5880E+00   max: 0.1305E+02   C at   21  1   RLX: 0.115
       a =  2.000      CL =  0.3847
      Cm = -0.0665     CD =  0.00567   =>   CDf =  0.00465    CDp =  0.00102

 Side 1  free  transition at x/c =  0.0430   20
 Side 2  free  transition at x/c =  0.6205   61

  10   rms: 0.4928E+00   max: 0.8536E+01   C at   20  1   RLX: 0.097
       a =  2.000      CL =  0.3893
      Cm = -0.0665     CD =  0.00572   =>   CDf =  0.00446    CDp =  0.00126

 Side 1  free  transition at x/c =  0.0380   20
 Side 2  free  transition at x/c =  0.6206   60

  11   rms: 0.2359E+01   max: 0.3569E+02   C at   20  1   RLX: 0.019
       a =  2.000      CL =  0.3899
      Cm = -0.0664     CD =  0.00574   =>   CDf =  0.00469    CDp =  0.00105

 Side 1  free  transition at x/c =  0.0305   18
 Side 2  free  transition at x/c =  0.6206   60

  12   rms: 0.9073E+00   max: 0.1991E+02   C at   18  1   RLX: 0.075
       a =  2.000      CL =  0.3930
      Cm = -0.0664     CD =  0.00578   =>   CDf =  0.00472    CDp =  0.00107

 Side 1  free  transition at x/c =  0.0255   17
 Side 2  free  transition at x/c =  0.6207   60

  13   rms: 0.6075E+00   max: -.7938E+01   D at   17  1   RLX: 0.063
       a =  2.000      CL =  0.3955
      Cm = -0.0664     CD =  0.00581   =>   CDf =  0.00473    CDp =  0.00108

 Side 1  free  transition at x/c =  0.0220   16
 Side 2  free  transition at x/c =  0.6208   60

  14   rms: 0.6300E+00   max: 0.8399E+01   C at   16  1   RLX: 0.063
       a =  2.000      CL =  0.3977
      Cm = -0.0663     CD =  0.00583   =>   CDf =  0.00475    CDp =  0.00109

 Side 1  free  transition at x/c =  0.0187   15
 Side 2  free  transition at x/c =  0.6208   60

  15   rms: 0.6373E+00   max: -.8291E+01   D at   15  1   RLX: 0.060
       a =  2.000      CL =  0.3997
      Cm = -0.0663     CD =  0.00585   =>   CDf =  0.00476    CDp =  0.00109

 Side 1  free  transition at x/c =  0.0155   14
 Side 2  free  transition at x/c =  0.6208   60

  16   rms: 0.5851E+00   max: -.9023E+01   D at   14  1   RLX: 0.055
       a =  2.000      CL =  0.4015
      Cm = -0.0663     CD =  0.00587   =>   CDf =  0.00477    CDp =  0.00110

 Side 1  free  transition at x/c =  0.0028    7
 Side 2  free  transition at x/c =  0.6209   60

  17   rms: 0.3274E+00   max: 0.7919E+01   C at    7  1   RLX: 0.189
       a =  2.000      CL =  0.4076
      Cm = -0.0663     CD =  0.00594   =>   CDf =  0.00480    CDp =  0.00113

 Side 1  free  transition at x/c =  0.0024    7
 Side 2  free  transition at x/c =  0.6210   60

  18   rms: 0.1738E+00   max: 0.3174E+01   C at    7  1   RLX: 0.326
       a =  2.000      CL =  0.4162
      Cm = -0.0663     CD =  0.00597   =>   CDf =  0.00481    CDp =  0.00116

 Side 1  free  transition at x/c =  0.0019    7
 Side 2  free  transition at x/c =  0.6211   60

  19   rms: 0.7021E-01   max: 0.1085E+01   D at    6  1
       a =  2.000      CL =  0.4341
      Cm = -0.0663     CD =  0.00603   =>   CDf =  0.00482    CDp =  0.00121

 Side 1  free  transition at x/c =  0.0020    7
 Side 2  free  transition at x/c =  0.6213   60

  20   rms: 0.2653E-01   max: -.3996E+00   D at    6  1
       a =  2.000      CL =  0.4341
      Cm = -0.0663     CD =  0.00603   =>   CDf =  0.00482    CDp =  0.00121

 Side 1  free  transition at x/c =  0.0017    7
 Side 2  free  transition at x/c =  0.6213   60

  21   rms: 0.3727E-02   max: -.5914E-01   D at    6  1
       a =  2.000      CL =  0.4341
      Cm = -0.0663     CD =  0.00603   =>   CDf =  0.00482    CDp =  0.00120

 Side 1  free  transition at x/c =  0.0017    7
 Side 2  free  transition at x/c =  0.6213   60

  22   rms: 0.1457E-03   max: -.2631E-02   D at    6  1
       a =  2.000      CL =  0.4341
      Cm = -0.0663     CD =  0.00603   =>   CDf =  0.00482    CDp =  0.00120

 Side 1  free  transition at x/c =  0.0017    7
 Side 2  free  transition at x/c =  0.6213   60

  23   rms: 0.7977E-06   max: -.7835E-05   D at    6  1
       a =  2.000      CL =  0.4341
      Cm = -0.0663     CD =  0.00603   =>   CDf =  0.00482    CDp =  0.00120
 plradd ia,ip,cpol            5          69  4.71000007E-04

 Point added to stored polar  1
 Save file unspecified or not available
 Dump file unspecified or not available

.OPERva   c>  
.OPERva   c>  
.OPERva   c>   Calculating wake trajectory ...
 Calculating source influence matrix ...

 Solving BL system ...

 Side 1  free  transition at x/c =  0.0017    7
 Side 2  free  transition at x/c =  0.6213   60

   1   rms: 0.2319E+00   max: 0.1376E+01   D at    7  1   RLX: 0.836
       a =  3.000      CL =  0.5273
      Cm = -0.0668     CD =  0.00634   =>   CDf =  0.00459    CDp =  0.00176

 Side 1  free  transition at x/c =  0.0020    8
 Side 2  free  transition at x/c =  0.6219   59

   2   rms: 0.3800E-01   max: 0.1528E-01   D at   75  2
       a =  3.000      CL =  0.5449
      Cm = -0.0668     CD =  0.00647   =>   CDf =  0.00460    CDp =  0.00187

 Side 1  free  transition at x/c =  0.0019    9
 Side 2  free  transition at x/c =  0.6646   59

   3   rms: 0.1806E-01   max: -.3435E+00   D at   59  2
       a =  3.000      CL =  0.5448
      Cm = -0.0668     CD =  0.00639   =>   CDf =  0.00474    CDp =  0.00164

 Side 1  free  transition at x/c =  0.0018    9
 Side 2  free  transition at x/c =  0.6400   59

   4   rms: 0.7665E-02   max: -.9050E-01   C at   59  2
       a =  3.000      CL =  0.5449
      Cm = -0.0668     CD =  0.00647   =>   CDf =  0.00482    CDp =  0.00164

 Side 1  free  transition at x/c =  0.0018    9
 Side 2  free  transition at x/c =  0.6301   59

   5   rms: 0.1003E-02   max: 0.1316E-01   n at   58  2
       a =  3.000      CL =  0.5449
      Cm = -0.0668     CD =  0.00646   =>   CDf =  0.00484    CDp =  0.00162

 Side 1  free  transition at x/c =  0.0018    9
 Side 2  free  transition at x/c =  0.6284   59

   6   rms: 0.4106E-04   max: 0.5609E-03   n at   58  2
       a =  3.000      CL =  0.5449
      Cm = -0.0668     CD =  0.00646   =>   CDf =  0.00484    CDp =  0.00162
 plradd ia,ip,cpol            6          71  1.52699999E-03

 Point added to stored polar  1
 Save file unspecified or not available
 Dump file unspecified or not available

.OPERva   c>  
.OPERva   c>  
.OPERva   c>   Calculating wake trajectory ...
 Calculating source influence matrix ...

 Solving BL system ...

 Side 1  free  transition at x/c =  0.0018    9
 Side 2  free  transition at x/c =  0.6284   59

   1   rms: 0.2464E+00   max: -.2181E+00   n at   58  2   RLX: 0.848
       a =  4.000      CL =  0.6378
      Cm = -0.0669     CD =  0.00692   =>   CDf =  0.00459    CDp =  0.00233

 Side 1  free  transition at x/c =  0.0019   10
 Side 2  free  transition at x/c =  0.6613   58

   2   rms: 0.4433E-01   max: 0.3211E+00   D at   10  1
       a =  4.000      CL =  0.6536
      Cm = -0.0668     CD =  0.00706   =>   CDf =  0.00475    CDp =  0.00231

 Side 1  free  transition at x/c =  0.0019   10
 Side 2  free  transition at x/c =  0.6558   58

   3   rms: 0.1110E-01   max: 0.1704E+00   D at   10  1
       a =  4.000      CL =  0.6536
      Cm = -0.0667     CD =  0.00707   =>   CDf =  0.00476    CDp =  0.00231

 Side 1  free  transition at x/c =  0.0020   10
 Side 2  free  transition at x/c =  0.6553   58

   4   rms: 0.7686E-01   max: -.9295E+00   D at   10  1   RLX: 0.538
       a =  4.000      CL =  0.6537
      Cm = -0.0668     CD =  0.00702   =>   CDf =  0.00476    CDp =  0.00226

 MRCHDU: Convergence failed at  10  side 1    Res =  0.4322E+01
 MRCHDU: Convergence failed at  11  side 1    Res =  0.3390E+02
 MRCHDU: Convergence failed at  12  side 1    Res =  0.1562E+02
 MRCHDU: Convergence failed at  13  side 1    Res =  0.2048E+02
 MRCHDU: Convergence failed at  14  side 1    Res =  0.2660E+02
 MRCHDU: Convergence failed at  15  side 1    Res =  0.3446E+02
 MRCHDU: Convergence failed at  16  side 1    Res =  0.5004E+02
 MRCHDU: Convergence failed at  17  side 1    Res =  0.8635E+02
 MRCHDU: Convergence failed at  18  side 1    Res =  0.1394E+03
 MRCHDU: Convergence failed at  19  side 1    Res =  0.2717E+04
 MRCHDU: Convergence failed at  20  side 1    Res =  0.3427E+03
 MRCHDU: Convergence failed at  21  side 1    Res =  0.2050E+03
 MRCHDU: Convergence failed at  22  side 1    Res =  0.1605E+03
 MRCHDU: Convergence failed at  23  side 1    Res =  0.1335E+03
 MRCHDU: Convergence failed at  24  side 1    Res =  0.7438E+02
 MRCHDU: Convergence failed at  25  side 1    Res =  0.6706E+02
 MRCHDU: Convergence failed at  26  side 1    Res =  0.8186E+02
 MRCHDU: Convergence failed at  27  side 1    Res =  0.7545E+02
 MRCHDU: Convergence failed at  28  side 1    Res =  0.7865E+02
 MRCHDU: Convergence failed at  29  side 1    Res =  0.7747E+02
 MRCHDU: Convergence failed at  30  side 1    Res =  0.8037E+02
 MRCHDU: Convergence failed at  31  side 1    Res =  0.8266E+02
 MRCHDU: Convergence failed at  32  side 1    Res =  0.7609E+02
 MRCHDU: Convergence failed at  33  side 1    Res =  0.7796E+02
 MRCHDU: Convergence failed at  34  side 1    Res =  0.8008E+02
 MRCHDU: Convergence failed at  35  side 1    Res =  0.8046E+02
 MRCHDU: Convergence failed at  36  side 1    Res =  0.8203E+02
 MRCHDU: Convergence failed at  37  side 1    Res =  0.8260E+02
 MRCHDU: Convergence failed at  38  side 1    Res =  0.8334E+02
 MRCHDU: Convergence failed at  39  side 1    Res =  0.7808E+02
 MRCHDU: Convergence failed at  40  side 1    Res =  0.8242E+02
 MRCHDU: Convergence failed at  41  side 1    Res =  0.7218E+02
 MRCHDU: Convergence failed at  42  side 1    Res =  0.7468E+02
 MRCHDU: Convergence failed at  43  side 1    Res =  0.7499E+02
 MRCHDU: Convergence failed at  44  side 1    Res =  0.7646E+02
 MRCHDU: Convergence failed at  45  side 1    Res =  0.6483E+02
 MRCHDU: Convergence failed at  46  side 1    Res =  0.6611E+02
 MRCHDU: Convergence failed at  47  side 1    Res =  0.6015E+02
 MRCHDU: Convergence failed at  48  side 1    Res =  0.6137E+02
 MRCHDU: Convergence failed at  49  side 1    Res =  0.1066E+03
 MRCHDU: Convergence failed at  50  side 1    Res =  0.1045E+03
 MRCHDU: Convergence failed at  51  side 1    Res =  0.1024E+03
 MRCHDU: Convergence failed at  52  side 1    Res =  0.1001E+03
 MRCHDU: Convergence failed at  53  side 1    Res =  0.5992E+02
 MRCHDU: Convergence failed at  54  side 1    Res =  0.5957E+02
 MRCHDU: Convergence failed at  55  side 1    Res =  0.6026E+02
 MRCHDU: Convergence failed at  56  side 1    Res =  0.6202E+02
 MRCHDU: Convergence failed at  57  side 1    Res =  0.6415E+02
 MRCHDU: Convergence failed at  58  side 1    Res =  0.1102E+03
 MRCHDU: Convergence failed at  59  side 1    Res =  0.1087E+03
 MRCHDU: Convergence failed at  60  side 1    Res =  0.1043E+03
 MRCHDU: Convergence failed at  61  side 1    Res =  0.6450E+02
 MRCHDU: Convergence failed at  62  side 1    Res =  0.6668E+02
 MRCHDU: Convergence failed at  63  side 1    Res =  0.1098E+03
 MRCHDU: Convergence failed at  64  side 1    Res =  0.1045E+03
 MRCHDU: Convergence failed at  65  side 1    Res =  0.6863E+02
 MRCHDU: Convergence failed at  66  side 1    Res =  0.6349E+02
 MRCHDU: Convergence failed at  67  side 1    Res =  0.1312E+03
 MRCHDU: Convergence failed at  68  side 1    Res =  0.1441E+03
 MRCHDU: Convergence failed at  69  side 1    Res =  0.1189E+03
 MRCHDU: Convergence failed at  70  side 1    Res =  0.1513E+04
 MRCHDU: Convergence failed at  71  side 1    Res =  0.2957E+03
 MRCHDU: Convergence failed at  72  side 1    Res =  0.6286E+03
 MRCHDU: Convergence failed at  73  side 1    Res =  0.1554E+03
 Side 1  free  transition at x/c =  0.0017   10
 Side 2  free  transition at x/c =  0.6554   58

   5   rms: 0.1337E+02   max: 0.6143E+02   D at   68  1   RLX: 0.024
       a =  4.000      CL =  3.4304
      Cm = -0.8488     CD =  0.00138   =>   CDf =  0.00077    CDp =  0.00061

 MRCHDU: Convergence failed at  73  side 1    Res =  0.2521E-04
 Side 1  free  transition at x/c =  0.0017   10
 Side 2  free  transition at x/c =  0.6553   58

   6   rms: 0.7328E+00   max: 0.3737E+01   D at   58  2   RLX: 0.219
       a =  4.000      CL =  1.7623
      Cm = -0.3768     CD =  0.07310   =>   CDf =  0.00103    CDp =  0.07207

 MRCHDU: Convergence failed at  57  side 2    Res =  0.2318E+00
 Side 1  free  transition at x/c =  0.0016   11
 Side 2  free  transition at x/c =  0.6641   57
 idif Ue xi dudx           1  0.14615741      2.28154659E-03   64.060677    
 Uenew xinew           2  4.77365591E-02  7.45177269E-04

   7   rms: 0.6817E+00   max: 0.4764E+01   C at   57  2   RLX: 0.315
       a =  4.000      CL =  1.2619
      Cm = -0.2525     CD =  0.08308   =>   CDf =  0.00132    CDp =  0.08176

 Side 1  free  transition at x/c =  0.0016   10
 Side 2  free  transition at x/c =  0.6697   58
 idif Ue xi dudx           1  0.10423489      1.55746937E-03   66.925804    
 Uenew xinew           2  3.29498737E-03  4.92334366E-05

   8   rms: 0.6551E+00   max: 0.7224E+01   C at   58  2   RLX: 0.208
       a =  4.000      CL =  1.0203
      Cm = -0.1926     CD =  0.10195   =>   CDf =  0.00140    CDp =  0.10056

 Side 1  free  transition at x/c =  0.0015    9
 Side 2  free  transition at x/c =  0.6694   59

   9   rms: 0.1060E+01   max: -.1342E+02   D at    2  2   RLX: 0.037
       a =  4.000      CL =  0.9931
      Cm = -0.1888     CD =  0.12568   =>   CDf =  0.00128    CDp =  0.12441

 Side 1  free  transition at x/c =  0.0015    9
 Side 2  free  transition at x/c =  0.6693   59

  10   rms: 0.6138E+00   max: 0.7567E+01   C at   59  2   RLX: 0.198
       a =  4.000      CL =  0.8552
      Cm = -0.1552     CD =  0.10859   =>   CDf =  0.00128    CDp =  0.10731

 MRCHDU: Convergence failed at   9  side 1    Res =  0.6857E-05
 Side 1  free  transition at x/c =  0.0016    9
 Side 2  free  transition at x/c =  0.6690   59

  11   rms: 0.5012E+00   max: 0.5661E+01   C at   59  2   RLX: 0.265
       a =  4.000      CL =  0.7150
      Cm = -0.1143     CD =  0.10000   =>   CDf =  0.00130    CDp =  0.09871

 Side 1  free  transition at x/c =  0.0016    9
 Side 2  free  transition at x/c =  0.6687   59

  12   rms: 0.4868E+00   max: 0.4942E+01   C at   59  2   RLX: 0.304
       a =  4.000      CL =  0.5964
      Cm = -0.0762     CD =  0.08983   =>   CDf =  0.00131    CDp =  0.08853

 Side 1  free  transition at x/c =  0.0017    9
 Side 2  free  transition at x/c =  0.6685   59

  13   rms: 0.5599E+00   max: 0.3698E+01   C at   59  2   RLX: 0.297
       a =  4.000      CL =  0.5249
      Cm = -0.0433     CD =  0.07748   =>   CDf =  0.00130    CDp =  0.07618

 Side 1  free  transition at x/c =  0.0022    9
 Side 2  free  transition at x/c =  0.6684   59

  14   rms: 0.1422E+01   max: 0.6293E+01   T at    9  1   RLX: 0.169
       a =  4.000      CL =  0.4697
      Cm = -0.0064     CD =  0.06477   =>   CDf =  0.00100    CDp =  0.06378

 Side 1  free  transition at x/c =  0.0016   11
 Side 2  free  transition at x/c =  0.6685   57

  15   rms: 0.6754E+00   max: -.1907E+01   D at   26  1   RLX: 0.262
       a =  4.000      CL =  0.4174
      Cm =  0.0085     CD =  0.04066   =>   CDf =  0.00203    CDp =  0.03864

 Side 1  free  transition at x/c =  0.0015   11
 Side 2  free  transition at x/c =  0.6682   57
 idif Ue xi dudx           1  0.11978776      1.74915791E-03   68.483101    
 Uenew xinew           2  1.45724220E-02  2.12788582E-04

  16   rms: 0.6095E+00   max: -.1622E+01   D at   26  1   RLX: 0.308
       a =  4.000      CL =  0.4554
      Cm = -0.0079     CD =  0.03670   =>   CDf =  0.00227    CDp =  0.03444

 Side 1  free  transition at x/c =  0.0016   10
 Side 2  free  transition at x/c =  0.6676   58

  17   rms: 0.6596E+00   max: -.1874E+01   D at   21  1   RLX: 0.267
       a =  4.000      CL =  0.4799
      Cm = -0.0014     CD =  0.02904   =>   CDf =  0.00228    CDp =  0.02676

 Side 1  free  transition at x/c =  0.0017   10
 Side 2  free  transition at x/c =  0.6670   58

  18   rms: 0.1423E+01   max: -.5970E+01   D at   63  1   RLX: 0.084
       a =  4.000      CL =  0.4683
      Cm =  0.0187     CD =  0.02256   =>   CDf =  0.00226    CDp =  0.02030

 Side 1  free  transition at x/c =  0.0017   11
 Side 2  free  transition at x/c =  0.6667   57

  19   rms: 0.1494E+01   max: -.6988E+01   D at   67  1   RLX: 0.072
       a =  4.000      CL =  0.4668
      Cm =  0.0272     CD =  0.01813   =>   CDf =  0.00262    CDp =  0.01551

 Side 1  free  transition at x/c =  0.0017   11
 Side 2  free  transition at x/c =  0.6664   57

  20   rms: 0.1102E+01   max: -.4595E+01   D at   67  1   RLX: 0.109
       a =  4.000      CL =  0.4757
      Cm =  0.0258     CD =  0.01536   =>   CDf =  0.00276    CDp =  0.01260

 Side 1  free  transition at x/c =  0.0017   11
 Side 2  free  transition at x/c =  0.6658   57
 idif Ue xi dudx           1  0.11642680      1.54948235E-03   75.139153    
 Uenew xinew           2  9.85301333E-04  1.31130219E-05

  21   rms: 0.7722E+00   max: -.3056E+01   D at   68  1   RLX: 0.164
       a =  4.000      CL =  0.4885
      Cm =  0.0176     CD =  0.01190   =>   CDf =  0.00319    CDp =  0.00872

 Side 1  free  transition at x/c =  0.0017   10
 Side 2  free  transition at x/c =  0.6650   58

  22   rms: 0.5905E+00   max: -.2343E+01   D at   68  1   RLX: 0.213
       a =  4.000      CL =  0.5092
      Cm =  0.0060     CD =  0.00990   =>   CDf =  0.00324    CDp =  0.00666

 Side 1  free  transition at x/c =  0.0018   10
 Side 2  free  transition at x/c =  0.6637   58

  23   rms: 0.4687E+00   max: -.1796E+01   D at   68  1   RLX: 0.278
       a =  4.000      CL =  0.5392
      Cm = -0.0097     CD =  0.00850   =>   CDf =  0.00351    CDp =  0.00499

 Side 1  free  transition at x/c =  0.0019   10
 Side 2  free  transition at x/c =  0.6618   58

  24   rms: 0.4462E+00   max: -.2445E+01   D at   52  1   RLX: 0.205
       a =  4.000      CL =  0.5590
      Cm = -0.0196     CD =  0.00774   =>   CDf =  0.00378    CDp =  0.00396

 Side 1  free  transition at x/c =  0.0020   10
 Side 2  free  transition at x/c =  0.6607   58

  25   rms: 0.2935E+00   max: -.1129E+01   D at   69  1   RLX: 0.259
       a =  4.000      CL =  0.5860
      Cm = -0.0315     CD =  0.00834   =>   CDf =  0.00399    CDp =  0.00435

 Side 1  free  transition at x/c =  0.0021   10
 Side 2  free  transition at x/c =  0.6592   58

  26   rms: 0.2618E+00   max: -.1346E+01   D at   52  1   RLX: 0.371
       a =  4.000      CL =  0.6094
      Cm = -0.0438     CD =  0.00758   =>   CDf =  0.00404    CDp =  0.00355

 Side 1  free  transition at x/c =  0.0022   10
 Side 2  free  transition at x/c =  0.6578   58

  27   rms: 0.2489E+00   max: -.1778E+01   D at   52  1   RLX: 0.281
       a =  4.000      CL =  0.6217
      Cm = -0.0500     CD =  0.00723   =>   CDf =  0.00427    CDp =  0.00295

 Side 1  free  transition at x/c =  0.0023   10
 Side 2  free  transition at x/c =  0.6571   58

  28   rms: 0.1397E+00   max: -.7689E+00   D at   12  1   RLX: 0.650
       a =  4.000      CL =  0.6443
      Cm = -0.0611     CD =  0.00711   =>   CDf =  0.00452    CDp =  0.00259

 Side 1  free  transition at x/c =  0.0023   10
 Side 2  free  transition at x/c =  0.6560   58

  29   rms: 0.7400E-01   max: -.5227E+00   D at   12  1   RLX: 0.957
       a =  4.000      CL =  0.6542
      Cm = -0.0667     CD =  0.00703   =>   CDf =  0.00466    CDp =  0.00237

 Side 1  free  transition at x/c =  0.0021   10
 Side 2  free  transition at x/c =  0.6554   58

  30   rms: 0.2750E-01   max: -.3279E+00   D at   11  1
       a =  4.000      CL =  0.6537
      Cm = -0.0668     CD =  0.00705   =>   CDf =  0.00475    CDp =  0.00230

 Side 1  free  transition at x/c =  0.0019   10
 Side 2  free  transition at x/c =  0.6554   58

  31   rms: 0.8405E-02   max: 0.1479E+00   D at   10  1
       a =  4.000      CL =  0.6536
      Cm = -0.0667     CD =  0.00707   =>   CDf =  0.00476    CDp =  0.00231

 Side 1  free  transition at x/c =  0.0020   10
 Side 2  free  transition at x/c =  0.6553   58

  32   rms: 0.3122E-01   max: 0.4326E+00   D at   10  1
       a =  4.000      CL =  0.6535
      Cm = -0.0667     CD =  0.00710   =>   CDf =  0.00476    CDp =  0.00234

 Side 1  free  transition at x/c =  0.0023   10
 Side 2  free  transition at x/c =  0.6553   58

  33   rms: 0.2263E+00   max: -.2421E+01   D at   11  1   RLX: 0.206
       a =  4.000      CL =  0.6540
      Cm = -0.0668     CD =  0.00701   =>   CDf =  0.00474    CDp =  0.00227

 Side 1  free  transition at x/c =  0.0019   10
 Side 2  free  transition at x/c =  0.6553   58

  34   rms: 0.1666E-01   max: 0.2518E+00   D at   10  1
       a =  4.000      CL =  0.6536
      Cm = -0.0667     CD =  0.00706   =>   CDf =  0.00477    CDp =  0.00229

 Side 1  free  transition at x/c =  0.0019   10
 Side 2  free  transition at x/c =  0.6554   58

  35   rms: 0.1054E-01   max: 0.1606E+00   D at   10  1
       a =  4.000      CL =  0.6536
      Cm = -0.0667     CD =  0.00707   =>   CDf =  0.00477    CDp =  0.00230

 Side 1  free  transition at x/c =  0.0020   10
 Side 2  free  transition at x/c =  0.6553   58

  36   rms: 0.6556E-01   max: 0.8717E+00   D at   10  1
       a =  4.000      CL =  0.6535
      Cm = -0.0666     CD =  0.00714   =>   CDf =  0.00476    CDp =  0.00238

 MRCHDU: Convergence failed at  11  side 1    Res =  0.5507E+01
 MRCHDU: Convergence failed at  12  side 1    Res =  0.5271E+02
 MRCHDU: Convergence failed at  13  side 1    Res =  0.6009E+02
 MRCHDU: Convergence failed at  14  side 1    Res =  0.4588E+02
 MRCHDU: Convergence failed at  15  side 1    Res =  0.5089E+02
 MRCHDU: Convergence failed at  16  side 1    Res =  0.7477E+02
 MRCHDU: Convergence failed at  17  side 1    Res =  0.1175E+03
 MRCHDU: Convergence failed at  18  side 1    Res =  0.2092E+03
 MRCHDU: Convergence failed at  19  side 1    Res =  0.2779E+03
 MRCHDU: Convergence failed at  20  side 1    Res =  0.1765E+03
 MRCHDU: Convergence failed at  21  side 1    Res =  0.1395E+03
 MRCHDU: Convergence failed at  22  side 1    Res =  0.5417E+02
 MRCHDU: Convergence failed at  23  side 1    Res =  0.6242E+02
 MRCHDU: Convergence failed at  24  side 1    Res =  0.7141E+02
 MRCHDU: Convergence failed at  25  side 1    Res =  0.7396E+02
 MRCHDU: Convergence failed at  26  side 1    Res =  0.7895E+02
 MRCHDU: Convergence failed at  27  side 1    Res =  0.8261E+02
 MRCHDU: Convergence failed at  28  side 1    Res =  0.8563E+02
 MRCHDU: Convergence failed at  29  side 1    Res =  0.8502E+02
 MRCHDU: Convergence failed at  30  side 1    Res =  0.8798E+02
 MRCHDU: Convergence failed at  31  side 1    Res =  0.9029E+02
 MRCHDU: Convergence failed at  32  side 1    Res =  0.9177E+02
 MRCHDU: Convergence failed at  33  side 1    Res =  0.9280E+02
 MRCHDU: Convergence failed at  34  side 1    Res =  0.9406E+02
 MRCHDU: Convergence failed at  35  side 1    Res =  0.9508E+02
 MRCHDU: Convergence failed at  36  side 1    Res =  0.9599E+02
 MRCHDU: Convergence failed at  37  side 1    Res =  0.9576E+02
 MRCHDU: Convergence failed at  38  side 1    Res =  0.9378E+02
 MRCHDU: Convergence failed at  39  side 1    Res =  0.8531E+02
 MRCHDU: Convergence failed at  40  side 1    Res =  0.8427E+02
 MRCHDU: Convergence failed at  41  side 1    Res =  0.8327E+02
 MRCHDU: Convergence failed at  42  side 1    Res =  0.8244E+02
 MRCHDU: Convergence failed at  43  side 1    Res =  0.9659E+02
 MRCHDU: Convergence failed at  44  side 1    Res =  0.9769E+02
 MRCHDU: Convergence failed at  45  side 1    Res =  0.9886E+02
 MRCHDU: Convergence failed at  46  side 1    Res =  0.7275E+02
 MRCHDU: Convergence failed at  47  side 1    Res =  0.7403E+02
 MRCHDU: Convergence failed at  48  side 1    Res =  0.7558E+02
 MRCHDU: Convergence failed at  49  side 1    Res =  0.7723E+02
 MRCHDU: Convergence failed at  50  side 1    Res =  0.7922E+02
 MRCHDU: Convergence failed at  51  side 1    Res =  0.7218E+02
 MRCHDU: Convergence failed at  52  side 1    Res =  0.7354E+02
 MRCHDU: Convergence failed at  53  side 1    Res =  0.7420E+02
 MRCHDU: Convergence failed at  54  side 1    Res =  0.7414E+02
 MRCHDU: Convergence failed at  55  side 1    Res =  0.7543E+02
 MRCHDU: Convergence failed at  56  side 1    Res =  0.1313E+03
 MRCHDU: Convergence failed at  57  side 1    Res =  0.1267E+03
 MRCHDU: Convergence failed at  58  side 1    Res =  0.1234E+03
 MRCHDU: Convergence failed at  59  side 1    Res =  0.7452E+02
 MRCHDU: Convergence failed at  60  side 1    Res =  0.7663E+02
 MRCHDU: Convergence failed at  61  side 1    Res =  0.1337E+03
 MRCHDU: Convergence failed at  62  side 1    Res =  0.1282E+03
 MRCHDU: Convergence failed at  63  side 1    Res =  0.1270E+03
 MRCHDU: Convergence failed at  64  side 1    Res =  0.7866E+02
 MRCHDU: Convergence failed at  65  side 1    Res =  0.1309E+03
 MRCHDU: Convergence failed at  66  side 1    Res =  0.1578E+03
 MRCHDU: Convergence failed at  67  side 1    Res =  0.1433E+03
 MRCHDU: Convergence failed at  68  side 1    Res =  0.1630E+03
 MRCHDU: Convergence failed at  69  side 1    Res =  0.1361E+03
 MRCHDU: Convergence failed at  70  side 1    Res =  0.9666E+03
 MRCHDU: Convergence failed at  71  side 1    Res =  0.3227E+03
 MRCHDU: Convergence failed at  72  side 1    Res =  0.5994E+03
 MRCHDU: Convergence failed at  73  side 1    Res =  0.8975E+04
 Side 1  free  transition at x/c =  0.0034   11
 Side 2  free  transition at x/c =  0.6553   58

  37   rms: 0.7510E+01   max: 0.2730E+02   D at   67  1   RLX: 0.055
       a =  4.000      CL =  3.0458
      Cm = -0.7517     CD =  0.00156   =>   CDf =  0.00085    CDp =  0.00072

 MRCHDU: Convergence failed at  70  side 2    Res =  0.1699E+01
 Side 1  free  transition at x/c =  0.0036   11
 Side 2  free  transition at x/c =  0.6552   58

  38   rms: 0.2592E+01   max: 0.2602E+02   T at   11  1   RLX: 0.058
       a =  4.000      CL =  2.0680
      Cm = -0.4638     CD =  0.08865   =>   CDf =  0.00103    CDp =  0.08763

 MRCHDU: Convergence failed at  57  side 2    Res =  0.2299E+00
 Side 1  free  transition at x/c =  0.0030   12
 Side 2  free  transition at x/c =  0.6622   57

  39   rms: 0.7600E+00   max: 0.6314E+01   C at   57  2   RLX: 0.238
       a =  4.000      CL =  1.7394
      Cm = -0.3739     CD =  0.10717   =>   CDf =  0.00113    CDp =  0.10604

 MRCHDU: Convergence failed at  75  side 2    Res =  0.1254E+01
 MRCHDU: Convergence failed at  76  side 2    Res =  0.4410E+01
 MRCHDU: Convergence failed at  77  side 2    Res =  0.1563E+01
 MRCHDU: Convergence failed at  78  side 2    Res =  0.2711E+01
 MRCHDU: Convergence failed at  79  side 2    Res =  0.2385E+02
 MRCHDU: Convergence failed at  80  side 2    Res =  0.3749E+01
 MRCHDU: Convergence failed at  81  side 2    Res =  0.1839E+01
 Side 1  free  transition at x/c =  0.0030   12
 Side 2  free  transition at x/c =  0.6706   57

  40   rms: 0.1073E+01   max: 0.1654E+02   C at   57  2   RLX: 0.091
       a =  4.000      CL =  1.5707
      Cm = -0.3311     CD =  0.14553   =>   CDf =  0.00125    CDp =  0.14428

 Side 1  free  transition at x/c =  0.0030   12
 Side 2  free  transition at x/c =  0.6701   57
 idif Ue xi dudx           1  0.10568999      1.64234638E-03   64.353050    
 Uenew xinew           2  6.81994716E-03  1.05977058E-04

  41   rms: 0.9308E+00   max: 0.1336E+02   C at   57  2   RLX: 0.112
       a =  4.000      CL =  1.4318
      Cm = -0.2969     CD =  0.14968   =>   CDf =  0.00144    CDp =  0.14824

 Side 1  free  transition at x/c =  0.0031   11
 Side 2  free  transition at x/c =  0.6696   58

  42   rms: 0.8455E+00   max: 0.1074E+02   C at   58  2   RLX: 0.140
       a =  4.000      CL =  1.2843
      Cm = -0.2603     CD =  0.15683   =>   CDf =  0.00131    CDp =  0.15553

 Side 1  free  transition at x/c =  0.0032   11
 Side 2  free  transition at x/c =  0.6690   58

  43   rms: 0.8248E+00   max: 0.1306E+02   C at   58  2   RLX: 0.115
       a =  4.000      CL =  1.1619
      Cm = -0.2297     CD =  0.17220   =>   CDf =  0.00134    CDp =  0.17087

 Side 1  free  transition at x/c =  0.0034   11
 Side 2  free  transition at x/c =  0.6687   58
 idif Ue xi dudx           1  0.12216437      1.72579288E-03   70.787384    
 Uenew xinew           2  1.54002877E-02  2.17556953E-04

  44   rms: 0.7613E+00   max: 0.1136E+02   C at   58  2   RLX: 0.132
       a =  4.000      CL =  1.0400
      Cm = -0.1994     CD =  0.17524   =>   CDf =  0.00151    CDp =  0.17373

 Side 1  free  transition at x/c =  0.0036   10
 Side 2  free  transition at x/c =  0.6683   59

  45   rms: 0.7186E+00   max: 0.1001E+02   C at   59  2   RLX: 0.119
       a =  4.000      CL =  0.9404
      Cm = -0.1743     CD =  0.18136   =>   CDf =  0.00137    CDp =  0.17999

 Side 1  free  transition at x/c =  0.0043   10
 Side 2  free  transition at x/c =  0.6680   59

  46   rms: 0.1039E+01   max: 0.1764E+02   C at   59  2   RLX: 0.085
       a =  4.000      CL =  1.0363
      Cm = -0.2091     CD =  0.27691   =>   CDf =  0.00137    CDp =  0.27553

 Side 1  free  transition at x/c =  0.0043   10
 Side 2  free  transition at x/c =  0.6680   59

  47   rms: 0.1181E+01   max: 0.9707E+01   C at   59  2   RLX: 0.120
       a =  4.000      CL =  0.9715
      Cm = -0.1924     CD =  0.22961   =>   CDf =  0.00142    CDp =  0.22819

 Side 1  free  transition at x/c =  0.0054   11
 Side 2  free  transition at x/c =  0.6676   59

  48   rms: 0.7105E+00   max: -.8104E+01   T at   11  1   RLX: 0.062
       a =  4.000      CL =  0.8802
      Cm = -0.1587     CD =  0.22719   =>   CDf =  0.00145    CDp =  0.22574

 Side 1  free  transition at x/c =  0.0046   11
 Side 2  free  transition at x/c =  0.6673   59

  49   rms: 0.7203E+00   max: -.6785E+01   T at   11  1   RLX: 0.074
       a =  4.000      CL =  0.9188
      Cm = -0.1689     CD =  0.22318   =>   CDf =  0.00145    CDp =  0.22173

 TRCHEK2: N2 convergence failed.
 x:  0.01372  0.01550  0.01585  N:  7.966  9.000  9.131  Nx:1234.902   dN:-0.213E+01
 TRCHEK2: N2 convergence failed.
 x:  0.01372  0.01520  0.01585  N:  7.966  9.000  9.350  Nx:1118.375   dN:-0.336E+01
 TRCHEK2: N2 convergence failed.
 x:  0.01372  0.01585  0.01585  N:  7.966  9.000  9.348  Nx: 648.197   dN: 0.348E+00
 TRCHEK2: N2 convergence failed.
 x:  0.01372  0.01585  0.01585  N:  7.966  9.000  9.903  Nx: 908.611   dN: 0.903E+00
 TRCHEK2: N2 convergence failed.
 x:  0.01372  0.01550  0.01585  N:  7.966  9.000  9.131  Nx:1268.726   dN:-0.213E+01
 TRCHEK2: N2 convergence failed.
 x:  0.01372  0.01585  0.01585  N:  7.966  9.000  9.785  Nx: 853.270   dN: 0.785E+00
 TRCHEK2: N2 convergence failed.
 x:  0.01372  0.01539  0.01585  N:  7.966  9.000  9.206  Nx:1457.057   dN:-0.240E+01
 TRCHEK2: N2 convergence failed.
 x:  0.01372  0.01585  0.01585  N:  7.966  9.000  9.958  Nx: 934.055   dN: 0.958E+00
 TRCHEK2: N2 convergence failed.
 x:  0.01372  0.01550  0.01585  N:  7.966  9.000  9.131  Nx:1255.836   dN:-0.213E+01
 TRCHEK2: N2 convergence failed.
 x:  0.01372  0.01518  0.01585  N:  7.966  9.000  9.369  Nx:1149.560   dN:-0.340E+01
 TRCHEK2: N2 convergence failed.
 x:  0.01372  0.01585  0.01585  N:  7.966  9.000  9.371  Nx: 659.004   dN: 0.371E+00
 TRCHEK2: N2 convergence failed.
 x:  0.01372  0.01585  0.01585  N:  7.966  9.000  9.937  Nx: 924.426   dN: 0.937E+00
 TRCHEK2: N2 convergence failed.
 x:  0.01372  0.01550  0.01585  N:  7.966  9.000  9.131  Nx:1263.955   dN:-0.213E+01
 TRCHEK2: N2 convergence failed.
 x:  0.01372  0.01585  0.01585  N:  7.966  9.000  9.778  Nx: 850.002   dN: 0.778E+00
 TRCHEK2: N2 convergence failed.
 x:  0.01372  0.01550  0.01585  N:  7.966  9.000  9.131  Nx:1381.518   dN:-0.214E+01
 TRCHEK2: N2 convergence failed.
 x:  0.01372  0.01585  0.01585  N:  7.966  9.000  9.950  Nx: 930.498   dN: 0.950E+00
 TRCHEK2: N2 convergence failed.
 x:  0.01372  0.01550  0.01585  N:  7.966  9.000  9.131  Nx:1255.663   dN:-0.213E+01
 TRCHEK2: N2 convergence failed.
 x:  0.01372  0.01518  0.01585  N:  7.966  9.000  9.368  Nx:1149.279   dN:-0.340E+01
 MRCHDU: Convergence failed at  11  side 1    Res =  0.8997E+00
 TRCHEK2: N2 convergence failed.
 x:  0.01814  0.02018  0.02060  N:  8.962  9.000  9.005  Nx: 162.920   dN:-0.364E+00
 TRCHEK2: N2 convergence failed.
 x:  0.01814  0.02018  0.02060  N:  8.962  9.000  9.005  Nx: 154.279   dN:-0.152E+01
 TRCHEK2: N2 convergence failed.
 x:  0.01814  0.02018  0.02060  N:  8.962  9.000  9.011  Nx: 151.508   dN: 0.130E+04
 TRCHEK2: N2 convergence failed.
 x:  0.01814  0.01995  0.02060  N:  8.962  9.000  9.010  Nx: 152.718   dN:-0.253E+02
 TRCHEK2: N2 convergence failed.
 x:  0.01814  0.02042  0.02060  N:  8.962  9.000  9.005  Nx: 149.573   dN: 0.928E+01
 TRCHEK2: N2 convergence failed.
 x:  0.01814  0.02018  0.02060  N:  8.962  9.000  9.005  Nx: 150.790   dN:-0.505E+02
 TRCHEK2: N2 convergence failed.
 x:  0.01814  0.01972  0.02060  N:  8.962  9.000  9.017  Nx: 154.903   dN:-0.117E+02
 TRCHEK2: N2 convergence failed.
 x:  0.01814  0.02018  0.02060  N:  8.962  9.000  9.005  Nx: 151.177   dN:-0.345E+02
 TRCHEK2: N2 convergence failed.
 x:  0.01814  0.01996  0.02060  N:  8.962  9.000  9.017  Nx: 151.893   dN: 0.202E+02
 TRCHEK2: N2 convergence failed.
 x:  0.01814  0.01972  0.02060  N:  8.962  9.000  9.017  Nx: 153.799   dN:-0.269E+02
 TRCHEK2: N2 convergence failed.
 x:  0.01814  0.01974  0.02060  N:  8.962  9.000  9.025  Nx: 152.711   dN: 0.886E+01
 TRCHEK2: N2 convergence failed.
 x:  0.01814  0.01974  0.02060  N:  8.962  9.000  9.025  Nx: 151.634   dN: 0.451E+01
 TRCHEK2: N2 convergence failed.
 x:  0.01814  0.01974  0.02060  N:  8.962  9.000  9.025  Nx: 150.494   dN: 0.450E+01
 TRCHEK2: N2 convergence failed.
 x:  0.01814  0.01973  0.02060  N:  8.962  9.000  9.017  Nx: 149.467   dN:-0.289E+02
 TRCHEK2: N2 convergence failed.
 x:  0.01814  0.01971  0.02060  N:  8.962  9.000  9.017  Nx: 148.515   dN:-0.172E+01
 TRCHEK2: N2 convergence failed.
 x:  0.01814  0.01972  0.02060  N:  8.962  9.000  9.017  Nx: 147.510   dN:-0.940E+00
 TRCHEK2: N2 convergence failed.
 x:  0.01814  0.01972  0.02060  N:  8.962  9.000  9.017  Nx: 146.673   dN:-0.125E+01
 TRCHEK2: N2 convergence failed.
 x:  0.01814  0.01973  0.02060  N:  8.962  9.000  9.026  Nx: 146.434   dN: 0.224E+01
 MRCHDU: Convergence failed at  13  side 1    Res =  0.8833E+01
 Side 1  free  transition at x/c =  0.0080   13
 Side 2  free  transition at x/c =  0.6671   59

  50   rms: 0.1912E+01   max: -.3960E+02   T at   13  1   RLX: 0.013
       a =  4.000      CL =  0.6970
      Cm = -0.1125     CD =  0.23400   =>   CDf =  0.00144    CDp =  0.23256

 TRCHEK2: N2 convergence failed.
 x:  0.01814  0.02043  0.02060  N:  8.862  9.000  9.002  Nx: 286.868   dN:-0.227E+00
 TRCHEK2: N2 convergence failed.
 x:  0.01814  0.02060  0.02060  N:  8.862  9.000  9.426  Nx: 221.118   dN: 0.426E+00
 TRCHEK2: N2 convergence failed.
 x:  0.01814  0.02040  0.02060  N:  8.862  9.000  9.004  Nx: 314.730   dN:-0.225E+00
 TRCHEK2: N2 convergence failed.
 x:  0.01814  0.02060  0.02060  N:  8.862  9.000  9.473  Nx: 238.528   dN: 0.473E+00
 TRCHEK2: N2 convergence failed.
 x:  0.01814  0.02044  0.02060  N:  8.862  9.000  9.002  Nx: 282.195   dN:-0.226E+00
 TRCHEK2: N2 convergence failed.
 x:  0.01814  0.02040  0.02060  N:  8.862  9.000  9.004  Nx: 317.264   dN:-0.221E+00
 TRCHEK2: N2 convergence failed.
 x:  0.01814  0.02060  0.02060  N:  8.862  9.000  9.475  Nx: 239.848   dN: 0.475E+00
 TRCHEK2: N2 convergence failed.
 x:  0.01814  0.02045  0.02060  N:  8.862  9.000  9.001  Nx: 276.144   dN:-0.225E+00
 MRCHDU: Convergence failed at  13  side 1    Res =  0.7725E+00
 Side 1  free  transition at x/c =  0.0086   13
 Side 2  free  transition at x/c =  0.6670   59

  51   rms: 0.1634E+01   max: -.3149E+02   T at   13  1   RLX: 0.016
       a =  4.000      CL =  0.6547
      Cm = -0.1020     CD =  0.23160   =>   CDf =  0.00144    CDp =  0.23016

 Side 1  free  transition at x/c =  0.0078   12
 Side 2  free  transition at x/c =  0.6669   59

  52   rms: 0.8932E+00   max: -.6800E+01   T at   13  1   RLX: 0.074
       a =  4.000      CL =  0.9038
      Cm = -0.1699     CD =  0.22542   =>   CDf =  0.00144    CDp =  0.22398

 TRCHEK2: N2 convergence failed.
 x:  0.01785  0.01991  0.02031  N:  8.841  9.000  9.019  Nx: 567.338   dN:-0.225E+00
 TRCHEK2: N2 convergence failed.
 x:  0.01785  0.01991  0.02031  N:  8.841  9.000  9.019  Nx: 619.452   dN:-0.226E+00
 TRCHEK2: N2 convergence failed.
 x:  0.01785  0.01991  0.02031  N:  8.841  9.000  9.019  Nx: 676.952   dN:-0.228E+00
 TRCHEK2: N2 convergence failed.
 x:  0.01785  0.01991  0.02031  N:  8.841  9.000  9.019  Nx: 576.992   dN:-0.225E+00
 TRCHEK2: N2 convergence failed.
 x:  0.01785  0.01991  0.02031  N:  8.841  9.000  9.019  Nx: 631.690   dN:-0.227E+00
 TRCHEK2: N2 convergence failed.
 x:  0.01785  0.01991  0.02031  N:  8.841  9.000  9.019  Nx: 691.566   dN:-0.229E+00
 TRCHEK2: N2 convergence failed.
 x:  0.01785  0.01991  0.02031  N:  8.841  9.000  9.019  Nx: 589.209   dN:-0.225E+00
 TRCHEK2: N2 convergence failed.
 x:  0.01785  0.01991  0.02031  N:  8.841  9.000  9.019  Nx: 645.198   dN:-0.227E+00
 TRCHEK2: N2 convergence failed.
 x:  0.01785  0.01991  0.02031  N:  8.841  9.000  9.019  Nx: 706.481   dN:-0.229E+00
 TRCHEK2: N2 convergence failed.
 x:  0.01785  0.01991  0.02031  N:  8.841  9.000  9.019  Nx: 602.018   dN:-0.226E+00
 TRCHEK2: N2 convergence failed.
 x:  0.01785  0.01991  0.02031  N:  8.841  9.000  9.019  Nx: 658.907   dN:-0.227E+00
 MRCHDU: Convergence failed at  13  side 1    Res =  0.9782E+00
 Side 1  free  transition at x/c =  0.0088   13
 Side 2  free  transition at x/c =  0.6667   59

  53   rms: 0.1477E+01   max: -.2716E+02   T at   13  1   RLX: 0.018
       a =  4.000      CL =  0.6276
      Cm = -0.0979     CD =  0.23122   =>   CDf =  0.00144    CDp =  0.22978

 Side 1  free  transition at x/c =  0.0071   12
 Side 2  free  transition at x/c =  0.6666   59
 idif Ue xi dudx           1  0.14115758      1.55961514E-03   90.507957    
 Uenew xinew           2  6.34416100E-03  7.00950623E-05

  54   rms: 0.6414E+00   max: -.7876E+01   T at   12  1   RLX: 0.063
       a =  4.000      CL =  0.6984
      Cm = -0.1169     CD =  0.21931   =>   CDf =  0.00160    CDp =  0.21771

 TRCHEK2: N2 convergence failed.
 x:  0.01543  0.01771  0.01772  N:  8.837  9.000  9.000  Nx: 317.411   dN:-0.290E+00
 TRCHEK2: N2 convergence failed.
 x:  0.01543  0.01772  0.01772  N:  8.837  9.000  9.454  Nx: 261.641   dN: 0.454E+00
 TRCHEK2: N2 convergence failed.
 x:  0.01543  0.01772  0.01772  N:  8.837  9.000  9.501  Nx: 280.505   dN: 0.501E+00
 TRCHEK2: N2 convergence failed.
 x:  0.01543  0.01772  0.01772  N:  8.837  9.000  9.553  Nx: 301.194   dN: 0.553E+00
 TRCHEK2: N2 convergence failed.
 x:  0.01543  0.01772  0.01772  N:  8.837  9.000  9.467  Nx: 266.794   dN: 0.467E+00
 TRCHEK2: N2 convergence failed.
 x:  0.01543  0.01772  0.01772  N:  8.837  9.000  9.513  Nx: 285.284   dN: 0.513E+00
 TRCHEK2: N2 convergence failed.
 x:  0.01543  0.01772  0.01772  N:  8.837  9.000  9.566  Nx: 306.119   dN: 0.566E+00
 TRCHEK2: N2 convergence failed.
 x:  0.01543  0.01772  0.01772  N:  8.837  9.000  9.477  Nx: 270.641   dN: 0.477E+00
 TRCHEK2: N2 convergence failed.
 x:  0.01543  0.01772  0.01772  N:  8.837  9.000  9.524  Nx: 289.623   dN: 0.524E+00
 MRCHDU: Convergence failed at  11  side 1    Res =  0.2936E+01
 Side 1  free  transition at x/c =  0.0066   11
 Side 2  free  transition at x/c =  0.6665   60

  55   rms: 0.1468E+01   max: -.2740E+02   T at   11  1   RLX: 0.018
       a =  4.000      CL =  0.6680
      Cm = -0.1093     CD =  0.22613   =>   CDf =  0.00143    CDp =  0.22470

 MRCHDU: Convergence failed at  11  side 1    Res =  0.5060E-01
 Side 1  free  transition at x/c =  0.0060   10
 Side 2  free  transition at x/c =  0.6664   60

  56   rms: 0.4691E+01   max: -.2731E+02   T at   11  1   RLX: 0.018
       a =  4.000      CL =  0.8441
      Cm = -0.1701     CD =  0.28213   =>   CDf =  0.00143    CDp =  0.28069

 Side 1  free  transition at x/c =  0.0048   10
 Side 2  free  transition at x/c =  0.6662   60

  57   rms: 0.8219E+00   max: -.1047E+02   T at   10  1   RLX: 0.048
       a =  4.000      CL =  0.6239
      Cm = -0.1087     CD =  0.23933   =>   CDf =  0.00143    CDp =  0.23790

 TRCHEK2: N2 convergence failed.
 x:  0.01274  0.01464  0.01488  N:  8.904  9.000  9.006  Nx: 342.853   dN:-0.132E+00
 TRCHEK2: N2 convergence failed.
 x:  0.01274  0.01467  0.01488  N:  8.904  9.000  9.004  Nx: 287.855   dN:-0.128E+00
 TRCHEK2: N2 convergence failed.
 x:  0.01274  0.01466  0.01488  N:  8.904  9.000  9.005  Nx: 317.893   dN:-0.130E+00
 TRCHEK2: N2 convergence failed.
 x:  0.01274  0.01453  0.01488  N:  8.904  9.000  9.012  Nx: 368.978   dN:-0.142E+00
 TRCHEK2: N2 convergence failed.
 x:  0.01274  0.01467  0.01488  N:  8.904  9.000  9.004  Nx: 294.223   dN:-0.128E+00
 TRCHEK2: N2 convergence failed.
 x:  0.01274  0.01465  0.01488  N:  8.904  9.000  9.005  Nx: 325.024   dN:-0.131E+00
 TRCHEK2: N2 convergence failed.
 x:  0.01274  0.01452  0.01488  N:  8.904  9.000  9.012  Nx: 377.432   dN:-0.143E+00
 TRCHEK2: N2 convergence failed.
 x:  0.01274  0.01467  0.01488  N:  8.904  9.000  9.005  Nx: 301.154   dN:-0.129E+00
 TRCHEK2: N2 convergence failed.
 x:  0.01274  0.01465  0.01488  N:  8.904  9.000  9.006  Nx: 332.432   dN:-0.131E+00
 MRCHDU: Convergence failed at  10  side 1    Res =  0.2999E+02
 Side 1  free  transition at x/c =  0.0050   10
 Side 2  free  transition at x/c =  0.6660   60

  58   rms: 0.1140E+01   max: -.1807E+02   T at   10  1   RLX: 0.028
       a =  4.000      CL =  0.6590
      Cm = -0.1179     CD =  0.24019   =>   CDf =  0.00142    CDp =  0.23876

 Side 1  free  transition at x/c =  0.0040    9
 Side 2  free  transition at x/c =  0.6659   60

  59   rms: 0.3841E+01   max: 0.7063E+02   T at   10  1   RLX: 0.009
       a =  4.000      CL =  0.5432
      Cm = -0.0898     CD =  0.24137   =>   CDf =  0.00142    CDp =  0.23994

 Side 1  free  transition at x/c =  0.0034    9
 Side 2  free  transition at x/c =  0.6658   60

  60   rms: 0.8089E+00   max: 0.1140E+02   T at    9  1   RLX: 0.132
       a =  4.000      CL =  0.4975
      Cm = -0.0808     CD =  0.20080   =>   CDf =  0.00142    CDp =  0.19938

 Side 1  free  transition at x/c =  0.0023    8
 Side 2  free  transition at x/c =  0.6654   60

  61   rms: 0.3326E+01   max: 0.6431E+02   T at    8  1   RLX: 0.023
       a =  4.000      CL =  0.4233
      Cm = -0.0639     CD =  0.20921   =>   CDf =  0.00139    CDp =  0.20782

 Side 1  free  transition at x/c =  0.0017    8
 Side 2  free  transition at x/c =  0.6650   60

  62   rms: 0.5382E+00   max: 0.5128E+01   C at   60  2   RLX: 0.268
       a =  4.000      CL =  0.3268
      Cm = -0.0392     CD =  0.16313   =>   CDf =  0.00138    CDp =  0.16175

 Side 1  free  transition at x/c =  0.0022    8
 Side 2  free  transition at x/c =  0.6655   60

  63   rms: 0.1195E+01   max: 0.1615E+02   T at    8  1   RLX: 0.080
       a =  4.000      CL =  0.2542
      Cm = -0.0178     CD =  0.17197   =>   CDf =  0.00137    CDp =  0.17060

 Side 1  free  transition at x/c =  0.0016    8
 Side 2  free  transition at x/c =  0.6657   60

  64   rms: 0.5389E+00   max: 0.2839E+01   C at   60  2   RLX: 0.348
       a =  4.000      CL =  0.2294
      Cm = -0.0044     CD =  0.12029   =>   CDf =  0.00137    CDp =  0.11892

 MRCHDU: Convergence failed at  88  side 2    Res =  0.1790E+01
 Side 1  free  transition at x/c =  0.0017    8
 Side 2  free  transition at x/c =  0.6660   60

  65   rms: 0.9759E+00   max: -.2741E+01   D at   82  2   RLX: 0.182
       a =  4.000      CL =  0.1779
      Cm =  0.0245     CD =  0.11373   =>   CDf =  0.00119    CDp =  0.11255

 Side 1  free  transition at x/c =  0.0016    9
 Side 2  free  transition at x/c =  0.6666   59

  66   rms: 0.1181E+01   max: -.3146E+01   D at   81  2   RLX: 0.159
       a =  4.000      CL =  0.2012
      Cm =  0.0355     CD =  0.09286   =>   CDf =  0.00117    CDp =  0.09169

 MRCHDU: Convergence failed at  21  side 1    Res =  0.1997E+01
 MRCHDU: Convergence failed at  22  side 1    Res =  0.1702E+01
 MRCHDU: Convergence failed at  23  side 1    Res =  0.1301E+01
 MRCHDU: Convergence failed at  24  side 1    Res =  0.4773E+00
 MRCHDU: Convergence failed at  26  side 1    Res =  0.3740E+01
 MRCHDU: Convergence failed at  27  side 1    Res =  0.2400E+01
 MRCHDU: Convergence failed at  28  side 1    Res =  0.3268E+01
 MRCHDU: Convergence failed at  29  side 1    Res =  0.7606E+00
 MRCHDU: Convergence failed at  30  side 1    Res =  0.7847E+00
 Side 1  free  transition at x/c =  0.0017   10
 Side 2  free  transition at x/c =  0.6669   58

  67   rms: 0.1402E+01   max: -.4394E+01   D at   16  1   RLX: 0.114
       a =  4.000      CL =  0.1220
      Cm =  0.0806     CD =  0.06883   =>   CDf =  0.00160    CDp =  0.06724

 Side 1  free  transition at x/c =  0.0017   11
 Side 2  free  transition at x/c =  0.6669   57

  68   rms: 0.6445E+01   max: 0.6264E+02   T at    2  1   RLX: 0.015
       a =  4.000      CL =  0.0884
      Cm =  0.1013     CD =  0.06316   =>   CDf =  0.00188    CDp =  0.06128

 Side 1  free  transition at x/c =  0.0018   11
 Side 2  free  transition at x/c =  0.6669   57
 idif Ue xi dudx           1  0.17520119      2.57992744E-03   67.909348    
 Uenew xinew           2  7.08673522E-02  1.04355812E-03

  69   rms: 0.1277E+02   max: 0.6451E+02   D at   43  1   RLX: 0.021
       a =  4.000      CL =  0.0392
      Cm =  0.0919     CD =  0.08758   =>   CDf =  0.00213    CDp =  0.08545

 Side 1  free  transition at x/c =  0.0019   10
 Side 2  free  transition at x/c =  0.6668   58

  70   rms: 0.1141E+01   max: 0.5033E+01   D at   86  2   RLX: 0.118
       a =  4.000      CL =  0.0379
      Cm =  0.1028     CD =  0.05382   =>   CDf =  0.00185    CDp =  0.05197

 Side 1  free  transition at x/c =  0.0018   10
 Side 2  free  transition at x/c =  0.6662   58

  71   rms: 0.7059E+01   max: -.2879E+02   D at   39  1   RLX: 0.017
       a =  4.000      CL =  0.0479
      Cm =  0.1171     CD =  0.04686   =>   CDf =  0.00165    CDp =  0.04521

 Side 1  free  transition at x/c =  0.0018   11
 Side 2  free  transition at x/c =  0.6662   57

  72   rms: 0.1594E+01   max: 0.7824E+01   D at   17  1   RLX: 0.097
       a =  4.000      CL =  0.0716
      Cm =  0.1157     CD =  0.03505   =>   CDf =  0.00189    CDp =  0.03316

 MRCHDU: Convergence failed at  11  side 1    Res =  0.5984E+01
 MRCHDU: Convergence failed at  12  side 1    Res =  0.2212E+02
 MRCHDU: Convergence failed at  13  side 1    Res =  0.3091E+02
 MRCHDU: Convergence failed at  14  side 1    Res =  0.1149E+03
 MRCHDU: Convergence failed at  15  side 1    Res =  0.8181E+02
 MRCHDU: Convergence failed at  16  side 1    Res =  0.4158E+02
 MRCHDU: Convergence failed at  17  side 1    Res =  0.2866E+02
 MRCHDU: Convergence failed at  18  side 1    Res =  0.4146E+02
 MRCHDU: Convergence failed at  19  side 1    Res =  0.5470E+02
 MRCHDU: Convergence failed at  20  side 1    Res =  0.7948E+02
 MRCHDU: Convergence failed at  21  side 1    Res =  0.3967E+03
 MRCHDU: Convergence failed at  22  side 1    Res =  0.4249E+03
 MRCHDU: Convergence failed at  23  side 1    Res =  0.2862E+03
 MRCHDU: Convergence failed at  24  side 1    Res =  0.2372E+03
 MRCHDU: Convergence failed at  25  side 1    Res =  0.2141E+03
 MRCHDU: Convergence failed at  26  side 1    Res =  0.1842E+03
 MRCHDU: Convergence failed at  27  side 1    Res =  0.1814E+03
 MRCHDU: Convergence failed at  28  side 1    Res =  0.1808E+03
 MRCHDU: Convergence failed at  29  side 1    Res =  0.1866E+03
 MRCHDU: Convergence failed at  30  side 1    Res =  0.1758E+03
 MRCHDU: Convergence failed at  31  side 1    Res =  0.2657E+03
 MRCHDU: Convergence failed at  32  side 1    Res =  0.1218E+04
 MRCHDU: Convergence failed at  33  side 1    Res =  0.1815E+03
 MRCHDU: Convergence failed at  34  side 1    Res =  0.1405E+03
 MRCHDU: Convergence failed at  35  side 1    Res =  0.3144E+04
 MRCHDU: Convergence failed at  36  side 1    Res =  0.2840E+03
 MRCHDU: Convergence failed at  37  side 1    Res =  0.1341E+03
 MRCHDU: Convergence failed at  38  side 1    Res =  0.1417E+03
 MRCHDU: Convergence failed at  39  side 1    Res =  0.1548E+03
 MRCHDU: Convergence failed at  40  side 1    Res =  0.1725E+03
 MRCHDU: Convergence failed at  41  side 1    Res =  0.1428E+03
 MRCHDU: Convergence failed at  42  side 1    Res =  0.2838E+03
 MRCHDU: Convergence failed at  43  side 1    Res =  0.3011E+03
 MRCHDU: Convergence failed at  44  side 1    Res =  0.1713E+03
 MRCHDU: Convergence failed at  45  side 1    Res =  0.1707E+03
 MRCHDU: Convergence failed at  46  side 1    Res =  0.1820E+03
 MRCHDU: Convergence failed at  47  side 1    Res =  0.5182E+04
 MRCHDU: Convergence failed at  48  side 1    Res =  0.2285E+03
 MRCHDU: Convergence failed at  49  side 1    Res =  0.4966E+03
 MRCHDU: Convergence failed at  50  side 1    Res =  0.2650E+03
 MRCHDU: Convergence failed at  51  side 1    Res =  0.7444E+03
 MRCHDU: Convergence failed at  52  side 1    Res =  0.9510E+04
 MRCHDU: Convergence failed at  53  side 1    Res =  0.4388E+06
 MRCHDU: Convergence failed at  54  side 1    Res =  0.2187E+04
 MRCHDU: Convergence failed at  55  side 1    Res =  0.6856E+04
 MRCHDU: Convergence failed at  56  side 1    Res =  0.5467E+04
 MRCHDU: Convergence failed at  57  side 1    Res =  0.1472E+03
 MRCHDU: Convergence failed at  58  side 1    Res =  0.1457E+03
 MRCHDU: Convergence failed at  59  side 1    Res =  0.2473E+04
 MRCHDU: Convergence failed at  60  side 1    Res =  0.2073E+04
 MRCHDU: Convergence failed at  61  side 1    Res =  0.1429E+03
 MRCHDU: Convergence failed at  62  side 1    Res =  0.1457E+03
 MRCHDU: Convergence failed at  63  side 1    Res =  0.1445E+03
 MRCHDU: Convergence failed at  64  side 1    Res =  0.1440E+03
 MRCHDU: Convergence failed at  65  side 1    Res =  0.1429E+03
 MRCHDU: Convergence failed at  66  side 1    Res =  0.1407E+03
 MRCHDU: Convergence failed at  67  side 1    Res =  0.1395E+03
 MRCHDU: Convergence failed at  68  side 1    Res =  0.3668E+04
 MRCHDU: Convergence failed at  69  side 1    Res =  0.9804E+03
 MRCHDU: Convergence failed at  70  side 1    Res =  0.1388E+03
 MRCHDU: Convergence failed at  71  side 1    Res =  0.1805E+04
 MRCHDU: Convergence failed at  72  side 1    Res =  0.2253E+04
 MRCHDU: Convergence failed at  73  side 1    Res =  0.4322E+03
 MRCHDU: Convergence failed at  74  side 1    Res =  0.2842E+03
 MRCHDU: Convergence failed at  70  side 2    Res =  0.4054E+01
 Side 1  free  transition at x/c =  0.0021   11
 Side 2  free  transition at x/c =  0.6659   57

  73   rms: 0.7067E+02   max: 0.7161E+03   T at   11  1   RLX: 0.001
       a =  4.000      CL =  3.9770
      Cm = -0.9775     CD =  0.00136   =>   CDf =  0.00072    CDp =  0.00064

 MRCHDU: Convergence failed at  54  side 1    Res =  0.1227E-04
 MRCHDU: Convergence failed at  55  side 1    Res =  0.2684E-04
 MRCHDU: Convergence failed at  56  side 1    Res =  0.5053E-04
 MRCHDU: Convergence failed at  57  side 1    Res =  0.8505E-04
 MRCHDU: Convergence failed at  58  side 1    Res =  0.1332E-03
 MRCHDU: Convergence failed at  59  side 1    Res =  0.1959E-03
 MRCHDU: Convergence failed at  60  side 1    Res =  0.2754E-03
 MRCHDU: Convergence failed at  61  side 1    Res =  0.3722E-03
 MRCHDU: Convergence failed at  62  side 1    Res =  0.4876E-03
 MRCHDU: Convergence failed at  63  side 1    Res =  0.6230E-03
 MRCHDU: Convergence failed at  64  side 1    Res =  0.8570E-03
 MRCHDU: Convergence failed at  65  side 1    Res =  0.1735E-02
 MRCHDU: Convergence failed at  66  side 1    Res =  0.2862E-02
 MRCHDU: Convergence failed at  67  side 1    Res =  0.4062E-02
 MRCHDU: Convergence failed at  68  side 1    Res =  0.7052E-02
 MRCHDU: Convergence failed at  69  side 1    Res =  0.1094E-01
 MRCHDU: Convergence failed at  70  side 1    Res =  0.1767E-01
 MRCHDU: Convergence failed at  71  side 1    Res =  0.2342E-01
 MRCHDU: Convergence failed at  72  side 1    Res =  0.2986E-01
 MRCHDU: Convergence failed at  73  side 1    Res =  0.3672E-01
 MRCHDU: Convergence failed at  74  side 1    Res =  0.5253E-01
 MRCHDU: Convergence failed at  84  side 2    Res =  0.3741E+01
 MRCHDU: Convergence failed at  85  side 2    Res =  0.5611E+01
 Side 1  free  transition at x/c =  0.0021   11
 Side 2  free  transition at x/c =  0.6659   57
 idif Ue xi dudx           1  0.12653911      1.83594227E-03   68.923248    
 Uenew xinew           2  2.06475407E-02  2.99572945E-04

  74   rms: 0.1110E+01   max: 0.4667E+01   C at   57  2   RLX: 0.139
       a =  4.000      CL =  1.9906
      Cm = -0.4361     CD =  0.08179   =>   CDf =  0.00129    CDp =  0.08050

 MRCHDU: Convergence failed at  86  side 2    Res =  0.9161E+00
 Side 1  free  transition at x/c =  0.0024   10
 Side 2  free  transition at x/c =  0.6658   58

  75   rms: 0.1474E+01   max: -.2024E+02   T at   10  1   RLX: 0.025
       a =  4.000      CL =  1.9120
      Cm = -0.4164     CD =  0.09524   =>   CDf =  0.00115    CDp =  0.09409

 Side 1  free  transition at x/c =  0.0028   10
 Side 2  free  transition at x/c =  0.6658   58

  76   rms: 0.1398E+01   max: -.5904E+01   T at   11  1   RLX: 0.085
       a =  4.000      CL =  1.8423
      Cm = -0.4124     CD =  0.10018   =>   CDf =  0.00115    CDp =  0.09902

 Side 1  free  transition at x/c =  0.0027   10
 Side 2  free  transition at x/c =  0.6658   58
 idif Ue xi dudx           1  0.11159121      1.64592266E-03   67.798576    
 Uenew xinew           2  9.33496468E-03  1.37686729E-04

  77   rms: 0.1625E+01   max: -.1463E+02   T at   11  1   RLX: 0.034
       a =  4.000      CL =  1.7734
      Cm = -0.3930     CD =  0.10754   =>   CDf =  0.00131    CDp =  0.10623

 Side 1  free  transition at x/c =  0.0026    9
 Side 2  free  transition at x/c =  0.6657   59

  78   rms: 0.3227E+01   max: -.6591E+02   T at   10  1   RLX: 0.008
       a =  4.000      CL =  1.7390
      Cm = -0.3840     CD =  0.11305   =>   CDf =  0.00118    CDp =  0.11188

 Side 1  free  transition at x/c =  0.0025    9
 Side 2  free  transition at x/c =  0.6657   59

  79   rms: 0.1466E+01   max: -.1459E+02   T at    9  1   RLX: 0.034
       a =  4.000      CL =  1.6737
      Cm = -0.3694     CD =  0.10952   =>   CDf =  0.00118    CDp =  0.10834

 Side 1  free  transition at x/c =  0.0024    9
 Side 2  free  transition at x/c =  0.6657   59
 idif Ue xi dudx           1  0.16278614      1.80447102E-03   90.212669    
 Uenew xinew           2  2.84125656E-02  3.14950943E-04

  80   rms: 0.9225E+00   max: 0.5056E+01   C at   59  2   RLX: 0.276
       a =  4.000      CL =  1.1618
      Cm = -0.2511     CD =  0.07045   =>   CDf =  0.00132    CDp =  0.06914

 Side 1  free  transition at x/c =  0.0021    8
 Side 2  free  transition at x/c =  0.6654   60

  81   rms: 0.8446E+00   max: 0.1184E+02   T at    8  1   RLX: 0.127
       a =  4.000      CL =  0.9907
      Cm = -0.2075     CD =  0.10573   =>   CDf =  0.00123    CDp =  0.10450

 Side 1  free  transition at x/c =  0.0016    8
 Side 2  free  transition at x/c =  0.6656   60

  82   rms: 0.6620E+00   max: 0.5775E+01   C at   60  2   RLX: 0.190
       a =  4.000      CL =  0.7303
      Cm = -0.1455     CD =  0.10518   =>   CDf =  0.00124    CDp =  0.10394

 Side 1  free  transition at x/c =  0.0019    8
 Side 2  free  transition at x/c =  0.6658   60

  83   rms: 0.1012E+01   max: 0.1334E+02   T at    8  1   RLX: 0.084
       a =  4.000      CL =  0.6434
      Cm = -0.1216     CD =  0.12064   =>   CDf =  0.00126    CDp =  0.11938

 Side 1  free  transition at x/c =  0.0017    8
 Side 2  free  transition at x/c =  0.6660   60

  84   rms: 0.4799E+00   max: 0.4945E+01   C at   60  2   RLX: 0.303
       a =  4.000      CL =  0.4706
      Cm = -0.0770     CD =  0.10104   =>   CDf =  0.00127    CDp =  0.09978

 Side 1  free  transition at x/c =  0.0018    8
 Side 2  free  transition at x/c =  0.6662   60

  85   rms: 0.4713E+00   max: 0.4121E+01   C at   60  2   RLX: 0.313
       a =  4.000      CL =  0.4202
      Cm = -0.0550     CD =  0.10477   =>   CDf =  0.00128    CDp =  0.10348

 Side 1  free  transition at x/c =  0.0020    8
 Side 2  free  transition at x/c =  0.6667   60

  86   rms: 0.6805E+01   max: -.2661E+02   D at    8  1   RLX: 0.019
       a =  4.000      CL =  0.4446
      Cm = -0.0464     CD =  0.14074   =>   CDf =  0.00115    CDp =  0.13959

 MRCHDU: Convergence failed at  85  side 2    Res =  0.9402E+00
 MRCHDU: Convergence failed at  86  side 2    Res =  0.2001E+01
 MRCHDU: Convergence failed at  87  side 2    Res =  0.4165E+02
 Side 1  free  transition at x/c =  0.0017    9
 Side 2  free  transition at x/c =  0.6679   59

  87   rms: 0.1567E+01   max: 0.2427E+02   D at    8  1   RLX: 0.062
       a =  4.000      CL =  0.4213
      Cm = -0.0387     CD =  0.13144   =>   CDf =  0.00135    CDp =  0.13008

 MRCHDU: Convergence failed at   9  side 1    Res =  0.7290E+02
 MRCHDU: Convergence failed at  18  side 1    Res =  0.2931E-04
 MRCHDU: Convergence failed at  26  side 1    Res =  0.2850E-01
 MRCHDU: Convergence failed at  27  side 1    Res =  0.1368E+01
 MRCHDU: Convergence failed at  28  side 1    Res =  0.7757E+01
 MRCHDU: Convergence failed at  29  side 1    Res =  0.1191E+02
 MRCHDU: Convergence failed at  30  side 1    Res =  0.1241E+02
 MRCHDU: Convergence failed at  31  side 1    Res =  0.1139E+02
 MRCHDU: Convergence failed at  32  side 1    Res =  0.1084E+02
 MRCHDU: Convergence failed at  33  side 1    Res =  0.1008E+02
 MRCHDU: Convergence failed at  34  side 1    Res =  0.9394E+01
 MRCHDU: Convergence failed at  35  side 1    Res =  0.8682E+01
 MRCHDU: Convergence failed at  36  side 1    Res =  0.7320E+01
 MRCHDU: Convergence failed at  37  side 1    Res =  0.8013E+01
 MRCHDU: Convergence failed at  38  side 1    Res =  0.8805E+01
 MRCHDU: Convergence failed at  39  side 1    Res =  0.9666E+01
 MRCHDU: Convergence failed at  40  side 1    Res =  0.1080E+02
 MRCHDU: Convergence failed at  41  side 1    Res =  0.1223E+02
 MRCHDU: Convergence failed at  42  side 1    Res =  0.1360E+02
 MRCHDU: Convergence failed at  43  side 1    Res =  0.1476E+02
 MRCHDU: Convergence failed at  44  side 1    Res =  0.1554E+02
 MRCHDU: Convergence failed at  45  side 1    Res =  0.1713E+02
 MRCHDU: Convergence failed at  46  side 1    Res =  0.1995E+02
 MRCHDU: Convergence failed at  47  side 1    Res =  0.2446E+02
 MRCHDU: Convergence failed at  48  side 1    Res =  0.3209E+02
[...]
      Cm = -0.0594     CD =  0.01069   =>   CDf =  0.00473    CDp =  0.00596

 Side 1  free  transition at x/c =  0.0012   21
 Side 2  free  transition at x/c =  0.7192   47

   3   rms: 0.2373E+00   max: -.8492E+00   U at   23  1   RLX: 0.442
       a = 10.000      CL =  1.2834
      Cm = -0.0613     CD =  0.01190   =>   CDf =  0.00419    CDp =  0.00770

 Side 1  free  transition at x/c =  0.0002   21
 Side 2  free  transition at x/c =  0.7194   46

   4   rms: 0.1378E+00   max: -.4932E+00   U at   24  1   RLX: 0.760
       a = 10.000      CL =  1.2788
      Cm = -0.0627     CD =  0.01211   =>   CDf =  0.00463    CDp =  0.00748

 Side 1  free  transition at x/c =  0.0001   21
 Side 2  free  transition at x/c =  0.7196   46

   5   rms: 0.3930E-01   max: -.1159E+00   D at   26  1
       a = 10.000      CL =  1.2783
      Cm = -0.0632     CD =  0.01192   =>   CDf =  0.00469    CDp =  0.00723

 Side 1  free  transition at x/c =  0.0000   20
 Side 2  free  transition at x/c =  0.7197   46

   6   rms: 0.3517E-02   max: -.7098E-02   U at   21  1
       a = 10.000      CL =  1.2779
      Cm = -0.0631     CD =  0.01198   =>   CDf =  0.00471    CDp =  0.00727

 Side 1  free  transition at x/c =  0.0000   20
 Side 2  free  transition at x/c =  0.7197   46

   7   rms: 0.1974E-03   max: 0.3649E-02   D at   20  1
       a = 10.000      CL =  1.2779
      Cm = -0.0631     CD =  0.01198   =>   CDf =  0.00471    CDp =  0.00726

 Side 1  free  transition at x/c =  0.0000   20
 Side 2  free  transition at x/c =  0.7197   46

   8   rms: 0.1027E-05   max: 0.1896E-04   D at   20  1
       a = 10.000      CL =  1.2779
      Cm = -0.0631     CD =  0.01198   =>   CDf =  0.00471    CDp =  0.00726
 plradd ia,ip,cpol           13          85  4.71000007E-04

 Point added to stored polar  1
 Save file unspecified or not available
 Dump file unspecified or not available

.OPERva   c>  
.OPERva   c>  
.OPERva   c>   Calculating wake trajectory ...
 Calculating source influence matrix ...

 Solving BL system ...

 Side 1  free  transition at x/c =  0.0000   20
 Side 2  free  transition at x/c =  0.7197   46

   1   rms: 0.1971E+00   max: 0.1572E+00   D at   61  2   RLX: 0.909
       a = 11.000      CL =  1.3652
      Cm = -0.0614     CD =  0.01322   =>   CDf =  0.00428    CDp =  0.00894

 Side 1  free  transition at x/c =  0.0000   21
 Side 2  free  transition at x/c =  0.7668   46

   2   rms: 0.1915E-01   max: -.1978E+00   D at   46  2
       a = 11.000      CL =  1.3723
      Cm = -0.0610     CD =  0.01340   =>   CDf =  0.00455    CDp =  0.00885

 Side 1  free  transition at x/c =  0.0000   21
 Side 2  free  transition at x/c =  0.7509   46

   3   rms: 0.1887E-02   max: -.2694E-01   D at   46  2
       a = 11.000      CL =  1.3721
      Cm = -0.0609     CD =  0.01343   =>   CDf =  0.00459    CDp =  0.00885

 Side 1  free  transition at x/c =  0.0000   21
 Side 2  free  transition at x/c =  0.7492   46

   4   rms: 0.4504E-04   max: -.5745E-03   D at   46  2
       a = 11.000      CL =  1.3721
      Cm = -0.0609     CD =  0.01343   =>   CDf =  0.00459    CDp =  0.00884
 plradd ia,ip,cpol           14          86  4.71000007E-04

 Point added to stored polar  1
 Save file unspecified or not available
 Dump file unspecified or not available

.OPERva   c>  
.OPERva   c>  
.OPERva   c>   Calculating wake trajectory ...
 Calculating source influence matrix ...

 Solving BL system ...

 Side 1  free  transition at x/c =  0.0000   21
 Side 2  free  transition at x/c =  0.7491   46

   1   rms: 0.1967E+00   max: 0.3507E+00   D at   46  2   RLX: 0.929
       a = 12.000      CL =  1.4577
      Cm = -0.0587     CD =  0.01487   =>   CDf =  0.00371    CDp =  0.01116

 Side 1  free  transition at x/c =  0.0000   23
 Side 2  free  transition at x/c =  0.7944   45

   2   rms: 0.2404E-01   max: 0.2351E+00   D at   45  2
       a = 12.000      CL =  1.4617
      Cm = -0.0581     CD =  0.01508   =>   CDf =  0.00439    CDp =  0.01068

 Side 1  free  transition at x/c =  0.0000   23
 Side 2  free  transition at x/c =  0.8131   45

   3   rms: 0.1714E-02   max: 0.4121E-01   C at   45  2
       a = 12.000      CL =  1.4616
      Cm = -0.0581     CD =  0.01509   =>   CDf =  0.00434    CDp =  0.01075

 Side 1  free  transition at x/c =  0.0000   23
 Side 2  free  transition at x/c =  0.8125   45

   4   rms: 0.1644E-04   max: -.4072E-03   C at   45  2
       a = 12.000      CL =  1.4616
      Cm = -0.0581     CD =  0.01509   =>   CDf =  0.00434    CDp =  0.01075
 plradd ia,ip,cpol           15          88  4.71000007E-04

 Point added to stored polar  1
 Save file unspecified or not available
 Dump file unspecified or not available

.OPERva   c>  
.OPERva   c>  
.OPERva   c>   Calculating wake trajectory ...
 Calculating source influence matrix ...

 Solving BL system ...

 Side 1  free  transition at x/c =  0.0000   23
 Side 2  free  transition at x/c =  0.8125   45

   1   rms: 0.2804E+00   max: -.5111E+01   C at   45  2   RLX: 0.098
       a = 13.000      CL =  1.4698
      Cm = -0.0578     CD =  0.01527   =>   CDf =  0.00434    CDp =  0.01092

 Side 1  free  transition at x/c =  0.0000   23
 Side 2  free  transition at x/c =  0.8195   46

   2   rms: 0.1775E+00   max: -.4630E+00   T at   47  2
       a = 13.000      CL =  1.5478
      Cm = -0.0548     CD =  0.01691   =>   CDf =  0.00340    CDp =  0.01351

 Side 1  free  transition at x/c =  0.0000   25
 Side 2  free  transition at x/c =  0.8728   45

   3   rms: 0.4491E-01   max: 0.5034E+00   D at   45  2
       a = 13.000      CL =  1.5441
      Cm = -0.0542     CD =  0.01699   =>   CDf =  0.00408    CDp =  0.01290

 Side 1  free  transition at x/c =  0.0000   25
 Side 2  free  transition at x/c =  0.9253   46

   4   rms: 0.1368E+00   max: -.3187E+01   C at   46  2   RLX: 0.157
       a = 13.000      CL =  1.5441
      Cm = -0.0544     CD =  0.01697   =>   CDf =  0.00397    CDp =  0.01300

 Side 1  free  transition at x/c =  0.0000   25
 Side 2  free  transition at x/c =  0.9374   47
 idif Ue xi dudx           1  4.97034453E-02  4.79364395E-03   10.368614    
 Uenew xinew           2  9.20846185E-04  8.88109207E-05

   5   rms: 0.9811E-01   max: 0.1200E+01   D at   47  2   RLX: 0.495
       a = 13.000      CL =  1.5397
      Cm = -0.0533     CD =  0.01678   =>   CDf =  0.00442    CDp =  0.01236

 Side 1  free  transition at x/c =  0.0000   24
 Side 2 forced transition at x/c =  0.9986   50

   6   rms: 0.1118E-01   max: 0.2084E+00   C at   50  2
       a = 13.000      CL =  1.5413
      Cm = -0.0535     CD =  0.01686   =>   CDf =  0.00386    CDp =  0.01300

 Side 1  free  transition at x/c =  0.0000   24
 Side 2 forced transition at x/c =  0.9986   50

   7   rms: 0.1723E-03   max: 0.1572E-02   D at    4  2
       a = 13.000      CL =  1.5413
      Cm = -0.0535     CD =  0.01686   =>   CDf =  0.00387    CDp =  0.01300

 Side 1  free  transition at x/c =  0.0000   24
 Side 2 forced transition at x/c =  0.9986   50

   8   rms: 0.3924E-06   max: -.2674E-05   C at   24  1
       a = 13.000      CL =  1.5413
      Cm = -0.0535     CD =  0.01686   =>   CDf =  0.00387    CDp =  0.01300
 plradd ia,ip,cpol           16          89  4.71000007E-04

 Point added to stored polar  1
 Save file unspecified or not available
 Dump file unspecified or not available

.OPERva   c>  
.OPERva   c>  
.OPERva   c>   Calculating wake trajectory ...
 Calculating source influence matrix ...

 Solving BL system ...

 Side 1  free  transition at x/c =  0.0000   24
 Side 2 forced transition at x/c =  0.9986   50

   1   rms: 0.1868E+00   max: -.5088E+00   D at    3  2   RLX: 0.983
       a = 14.000      CL =  1.6190
      Cm = -0.0493     CD =  0.01911   =>   CDf =  0.00309    CDp =  0.01601

 Side 1  free  transition at x/c =  0.0000   26
 Side 2 forced transition at x/c =  0.9986   48

   2   rms: 0.7808E-02   max: -.6649E-01   D at    4  1
       a = 14.000      CL =  1.6145
      Cm = -0.0482     CD =  0.01936   =>   CDf =  0.00370    CDp =  0.01566

 Side 1  free  transition at x/c =  0.0000   26
 Side 2 forced transition at x/c =  0.9986   48

   3   rms: 0.1916E-03   max: -.1410E-02   D at    4  1
       a = 14.000      CL =  1.6144
      Cm = -0.0482     CD =  0.01936   =>   CDf =  0.00369    CDp =  0.01567

 Side 1  free  transition at x/c =  0.0000   26
 Side 2 forced transition at x/c =  0.9986   48

   4   rms: 0.6873E-06   max: 0.5926E-05   C at   48  2
       a = 14.000      CL =  1.6144
      Cm = -0.0482     CD =  0.01936   =>   CDf =  0.00369    CDp =  0.01567
 plradd ia,ip,cpol           17          91  1.74999994E-04

 Point added to stored polar  1
 Save file unspecified or not available
 Dump file unspecified or not available

.OPERva   c>  
.OPERva   c>  
.OPERva   c>   Calculating wake trajectory ...
 Calculating source influence matrix ...

 Solving BL system ...

 Side 1  free  transition at x/c =  0.0000   26
 Side 2 forced transition at x/c =  0.9986   48

   1   rms: 0.1745E+00   max: -.2222E+00   n at   45  2
       a = 15.000      CL =  1.6816
      Cm = -0.0422     CD =  0.02210   =>   CDf =  0.00327    CDp =  0.01883

 Side 1  free  transition at x/c =  0.0000   27
 Side 2 forced transition at x/c =  0.9986   47

   2   rms: 0.1549E-01   max: 0.6371E-01   D at   93  1
       a = 15.000      CL =  1.6683
      Cm = -0.0399     CD =  0.02230   =>   CDf =  0.00348    CDp =  0.01882

 Side 1  free  transition at x/c =  0.0000   27
 Side 2 forced transition at x/c =  0.9986   47

   3   rms: 0.4532E-02   max: -.6849E-01   C at   47  2
       a = 15.000      CL =  1.6664
      Cm = -0.0395     CD =  0.02229   =>   CDf =  0.00348    CDp =  0.01882

 Side 1  free  transition at x/c =  0.0000   27
 Side 2 forced transition at x/c =  0.9986   47

   4   rms: 0.2895E-03   max: 0.3166E-02   C at   47  2
       a = 15.000      CL =  1.6666
      Cm = -0.0395     CD =  0.02230   =>   CDf =  0.00348    CDp =  0.01882

 Side 1  free  transition at x/c =  0.0000   27
 Side 2 forced transition at x/c =  0.9986   47

   5   rms: 0.1285E-05   max: 0.1100E-04   C at   47  2
       a = 15.000      CL =  1.6666
      Cm = -0.0395     CD =  0.02230   =>   CDf =  0.00348    CDp =  0.01882
 plradd ia,ip,cpol           18          92  1.74999994E-04

 Point added to stored polar  1
 Save file unspecified or not available
 Dump file unspecified or not available

.OPERva   c>  
.OPERva   c>  
.OPERva   c>   Calculating wake trajectory ...
 Calculating source influence matrix ...

 Solving BL system ...

 Side 1  free  transition at x/c =  0.0000   27
 Side 2 forced transition at x/c =  0.9986   47

   1   rms: 0.1493E+00   max: -.3361E+00   C at   47  2
       a = 16.000      CL =  1.7028
      Cm = -0.0283     CD =  0.02547   =>   CDf =  0.00303    CDp =  0.02244

 Side 1  free  transition at x/c =  0.0000   28
 Side 2 forced transition at x/c =  0.9986   46

   2   rms: 0.1558E-01   max: 0.1429E+00   D at   50  2
       a = 16.000      CL =  1.6941
      Cm = -0.0279     CD =  0.02603   =>   CDf =  0.00323    CDp =  0.02280

 Side 1  free  transition at x/c =  0.0000   28
 Side 2 forced transition at x/c =  0.9986   46

   3   rms: 0.3754E-02   max: 0.5162E-01   D at   51  2
       a = 16.000      CL =  1.6923
      Cm = -0.0276     CD =  0.02606   =>   CDf =  0.00322    CDp =  0.02284

 Side 1  free  transition at x/c =  0.0000   28
 Side 2 forced transition at x/c =  0.9986   46

   4   rms: 0.4948E-03   max: -.6029E-02   D at   51  2
       a = 16.000      CL =  1.6926
      Cm = -0.0276     CD =  0.02606   =>   CDf =  0.00322    CDp =  0.02284

 Side 1  free  transition at x/c =  0.0000   28
 Side 2 forced transition at x/c =  0.9986   46

   5   rms: 0.5688E-05   max: -.7289E-04   D at   51  2
       a = 16.000      CL =  1.6926
      Cm = -0.0276     CD =  0.02606   =>   CDf =  0.00322    CDp =  0.02284
 plradd ia,ip,cpol           19          93  1.74999994E-04

 Point added to stored polar  1
 Save file unspecified or not available
 Dump file unspecified or not available

.OPERva   c>  
.OPERva   c>  
.OPERva   c>   Calculating wake trajectory ...
 Calculating source influence matrix ...

 Solving BL system ...

 Side 1  free  transition at x/c =  0.0000   28
 Side 2 forced transition at x/c =  0.9986   46

   1   rms: 0.1435E+00   max: 0.3496E+00   D at   89  1   RLX: 0.995
       a = 17.000      CL =  1.7176
      Cm = -0.0171     CD =  0.03046   =>   CDf =  0.00277    CDp =  0.02769

 Side 1  free  transition at x/c =  0.0000   29
 Side 2 forced transition at x/c =  0.9986   45

   2   rms: 0.2725E-01   max: 0.1917E+00   D at   92  1
       a = 17.000      CL =  1.6980
      Cm = -0.0156     CD =  0.03153   =>   CDf =  0.00293    CDp =  0.02860

 Side 1  free  transition at x/c =  0.0000   29
 Side 2 forced transition at x/c =  0.9986   45

   3   rms: 0.4917E-02   max: 0.6353E-01   D at   91  1
       a = 17.000      CL =  1.6960
      Cm = -0.0155     CD =  0.03163   =>   CDf =  0.00292    CDp =  0.02871

 Side 1  free  transition at x/c =  0.0000   29
 Side 2 forced transition at x/c =  0.9986   45

   4   rms: 0.3074E-02   max: -.1880E-01   D at   91  1
       a = 17.000      CL =  1.6984
      Cm = -0.0158     CD =  0.03156   =>   CDf =  0.00291    CDp =  0.02864

 Side 1  free  transition at x/c =  0.0000   29
 Side 2 forced transition at x/c =  0.9986   45

   5   rms: 0.1315E-03   max: -.1154E-02   D at   91  1
       a = 17.000      CL =  1.6985
      Cm = -0.0158     CD =  0.03156   =>   CDf =  0.00292    CDp =  0.02864

 Side 1  free  transition at x/c =  0.0000   29
 Side 2 forced transition at x/c =  0.9986   45

   6   rms: 0.1544E-05   max: 0.6196E-05   D at   53  2
       a = 17.000      CL =  1.6985
      Cm = -0.0158     CD =  0.03156   =>   CDf =  0.00292    CDp =  0.02864
 plradd ia,ip,cpol           20          94  1.74999994E-04

 Point added to stored polar  1
 Save file unspecified or not available
 Dump file unspecified or not available

.OPERva   c>  
.OPERva   c>  
.OPERva   c>   Calculating wake trajectory ...
 Calculating source influence matrix ...

 Solving BL system ...

 Side 1  free  transition at x/c =  0.0000   29
 Side 2 forced transition at x/c =  0.9986   45

   1   rms: 0.1343E+00   max: 0.4295E+00   D at   89  1   RLX: 0.792
       a = 18.000      CL =  1.6997
      Cm = -0.0078     CD =  0.03684   =>   CDf =  0.00293    CDp =  0.03391

 Side 1  free  transition at x/c =  0.0000   29
 Side 2 forced transition at x/c =  0.9986   45

   2   rms: 0.3572E-01   max: 0.2981E+00   D at   90  1
       a = 18.000      CL =  1.6808
      Cm = -0.0058     CD =  0.04001   =>   CDf =  0.00266    CDp =  0.03734

 Side 1  free  transition at x/c =  0.0000   29
 Side 2 forced transition at x/c =  0.9986   45

   3   rms: 0.8548E-02   max: 0.5159E-01   D at   54  2
       a = 18.000      CL =  1.6871
      Cm = -0.0065     CD =  0.03967   =>   CDf =  0.00257    CDp =  0.03710

 Side 1  free  transition at x/c =  0.0000   29
 Side 2 forced transition at x/c =  0.9986   45

   4   rms: 0.2955E-03   max: -.5470E-02   D at   54  2
       a = 18.000      CL =  1.6870
      Cm = -0.0065     CD =  0.03970   =>   CDf =  0.00257    CDp =  0.03712

 Side 1  free  transition at x/c =  0.0000   29
 Side 2 forced transition at x/c =  0.9986   45

   5   rms: 0.2709E-05   max: -.5002E-04   D at   54  2
       a = 18.000      CL =  1.6870
      Cm = -0.0065     CD =  0.03970   =>   CDf =  0.00257    CDp =  0.03712
 plradd ia,ip,cpol           21          94  1.74999994E-04

 Point added to stored polar  1
 Save file unspecified or not available
 Dump file unspecified or not available

.OPERva   c>  
.OPERva   c>  
.OPERva   c>   Calculating wake trajectory ...
 Calculating source influence matrix ...

 Solving BL system ...

 Side 1  free  transition at x/c =  0.0000   29
 Side 2 forced transition at x/c =  0.9986   45

   1   rms: 0.1325E+00   max: 0.4832E+00   D at   88  1   RLX: 0.656
       a = 19.000      CL =  1.6818
      Cm = -0.0023     CD =  0.04589   =>   CDf =  0.00214    CDp =  0.04374

 Side 1  free  transition at x/c =  0.0000   30
 Side 2 forced transition at x/c =  0.9986   44
 idif Ue xi dudx           1  5.45060560E-02  7.69174099E-03   7.0863094    
 Uenew xinew           2  7.96518475E-03  1.12402439E-03

   2   rms: 0.1337E+00   max: 0.7123E+00   D at   90  1
       a = 19.000      CL =  1.5927
      Cm = -0.0014     CD =  0.05742   =>   CDf =  0.00283    CDp =  0.05459

 Side 1  free  transition at x/c =  0.0000   29
 Side 2 forced transition at x/c =  0.9986   45

   3   rms: 0.5200E-01   max: -.4289E+00   D at   89  1
       a = 19.000      CL =  1.6283
      Cm = -0.0024     CD =  0.05442   =>   CDf =  0.00174    CDp =  0.05268

 Side 1  free  transition at x/c =  0.0000   30
 Side 2 forced transition at x/c =  0.9986   44

   4   rms: 0.1332E-01   max: -.4280E-01   D at   57  2
       a = 19.000      CL =  1.6382
      Cm = -0.0029     CD =  0.05413   =>   CDf =  0.00216    CDp =  0.05196

 Side 1  free  transition at x/c =  0.0000   30
 Side 2 forced transition at x/c =  0.9986   44

   5   rms: 0.4891E-03   max: 0.5369E-02   D at   87  1
       a = 19.000      CL =  1.6380
      Cm = -0.0030     CD =  0.05421   =>   CDf =  0.00217    CDp =  0.05204

 Side 1  free  transition at x/c =  0.0000   30
 Side 2 forced transition at x/c =  0.9986   44

   6   rms: 0.3194E-05   max: -.3271E-04   C at   44  2
       a = 19.000      CL =  1.6380
      Cm = -0.0030     CD =  0.05421   =>   CDf =  0.00217    CDp =  0.05204
 plradd ia,ip,cpol           22          95  1.74999994E-04

 Point added to stored polar  1
 Save file unspecified or not available
 Dump file unspecified or not available

.OPERva   c>  
.OPERva   c>  
.OPERva   c>  
        airfoil                    Re           Mach       Ncrit  XtripT  XtripB     file
       ------------------------  ------------  ----------  -----  ------  ------    -------------------
 >  1  BOEING HSNLF AIRFOIL      1.000e7       0.000        9.00   1.000   1.000    

Enter polar output filename   s>  
.OPERva   c>  
 ==============================================================
 Polar  1
  
       XFOIL         Version 6.99
  
 Calculated polar for: BOEING HSNLF AIRFOIL                            
  
 1 1 Reynolds number fixed          Mach number fixed         
  
 xtrf =   1.000 (top)        1.000 (bottom)  
 Mach =   0.000     Re =    10.000 e 6     Ncrit =   9.000
  
   alpha    CL        CD       CDp       CM     Top_Xtr  Bot_Xtr
  ------ -------- --------- --------- -------- -------- --------
  -2.000   0.0159   0.00422   0.00057  -0.0677   0.8551   0.0672
  -1.000   0.1226   0.00290   0.00022  -0.0685   0.7436   0.5236
   0.000   0.2253   0.00389   0.00044  -0.0676   0.4750   0.5725
   1.000   0.3263   0.00521   0.00082  -0.0665   0.1287   0.6173
   2.000   0.4341   0.00603   0.00120  -0.0663   0.0017   0.6213
   3.000   0.5449   0.00646   0.00162  -0.0668   0.0018   0.6284
   4.000   0.6500   0.00761   0.00297  -0.0656   0.0043   0.6552
   5.000   0.7564   0.00844   0.00386  -0.0652   0.0026   0.6676
   6.000   0.8606   0.00946   0.00491  -0.0645   0.0017   0.6700
   7.000   0.9765   0.00875   0.00386  -0.0669   0.0009   0.6733
   8.000   1.0788   0.00975   0.00492  -0.0659   0.0002   0.7006
   9.000   1.1800   0.01073   0.00596  -0.0648   0.0001   0.7168
  10.000   1.2779   0.01198   0.00726  -0.0631   0.0000   0.7197
  11.000   1.3721   0.01343   0.00884  -0.0609   0.0000   0.7492
  12.000   1.4616   0.01509   0.01075  -0.0581   0.0000   0.8125
  13.000   1.5413   0.01686   0.01300  -0.0535   0.0000   0.9986
  14.000   1.6144   0.01936   0.01567  -0.0482   0.0000   0.9986
  15.000   1.6666   0.02230   0.01882  -0.0395   0.0000   0.9986
  16.000   1.6926   0.02606   0.02284  -0.0276   0.0000   0.9986
  17.000   1.6985   0.03156   0.02864  -0.0158   0.0000   0.9986
  18.000   1.6870   0.03970   0.03712  -0.0065   0.0000   0.9986
  19.000   1.6380   0.05421   0.05204  -0.0030   0.0000   0.9986

.OPERva   c>  
 XFOIL   c>  